
---------- Begin Simulation Statistics ----------
final_tick                                31645432500                       # Number of ticks from beginning of simulation (restored from checkpoints and never reset)
host_inst_rate                                  62416                       # Simulator instruction rate (inst/s)
host_mem_usage                                1042016                       # Number of bytes of host memory used
host_op_rate                                   120787                       # Simulator op (including micro ops) rate (op/s)
host_seconds                                   160.22                       # Real time elapsed on the host
host_tick_rate                              197518140                       # Simulator tick rate (ticks/s)
sim_freq                                 1000000000000                       # Frequency of simulated ticks
sim_insts                                    10000012                       # Number of instructions simulated
sim_ops                                      19351849                       # Number of ops (including micro ops) simulated
sim_seconds                                  0.031645                       # Number of seconds simulated
sim_ticks                                 31645432500                       # Number of ticks simulated
system.cpu.Branches                                 1                       # Number of branches fetched
system.cpu.committedInsts                          10                       # Number of instructions committed
system.cpu.committedOps                            21                       # Number of ops (including micro ops) committed
system.cpu.dtb.rdAccesses                           0                       # TLB accesses on read requests
system.cpu.dtb.rdMisses                             0                       # TLB misses on read requests
system.cpu.dtb.wrAccesses                           7                       # TLB accesses on write requests
system.cpu.dtb.wrMisses                             1                       # TLB misses on write requests
system.cpu.idle_fraction                            0                       # Percentage of idle cycles
system.cpu.itb.rdAccesses                           0                       # TLB accesses on read requests
system.cpu.itb.rdMisses                             0                       # TLB misses on read requests
system.cpu.itb.wrAccesses                          10                       # TLB accesses on write requests
system.cpu.itb.wrMisses                             0                       # TLB misses on write requests
system.cpu.not_idle_fraction                        1                       # Percentage of non-idle cycles
system.cpu.numCycles                               21                       # number of cpu cycles simulated
system.cpu.numWorkItemsCompleted                    0                       # number of work items this cpu completed
system.cpu.numWorkItemsStarted                      0                       # number of work items this cpu started
system.cpu.num_busy_cycles                         21                       # Number of busy cycles
system.cpu.num_cc_register_writes                   2                       # number of times the CC registers were written
system.cpu.num_conditional_control_insts            0                       # number of instructions that are conditional controls
system.cpu.num_fp_alu_accesses                      0                       # Number of float alu accesses
system.cpu.num_fp_insts                             0                       # number of float instructions
system.cpu.num_fp_register_reads                    0                       # number of times the floating registers were read
system.cpu.num_fp_register_writes                   0                       # number of times the floating registers were written
system.cpu.num_func_calls                           1                       # number of times a function call or return occured
system.cpu.num_idle_cycles                          0                       # Number of idle cycles
system.cpu.num_int_alu_accesses                    21                       # Number of integer alu accesses
system.cpu.num_int_insts                           21                       # number of integer instructions
system.cpu.num_int_register_reads                  47                       # number of times the integer registers were read
system.cpu.num_int_register_writes                 13                       # number of times the integer registers were written
system.cpu.num_load_insts                           0                       # Number of load instructions
system.cpu.num_mem_refs                             7                       # number of memory refs
system.cpu.num_store_insts                          7                       # Number of store instructions
system.cpu.num_vec_alu_accesses                     0                       # Number of vector alu accesses
system.cpu.num_vec_insts                            0                       # number of vector instructions
system.cpu.num_vec_register_reads                   0                       # number of times the vector registers were read
system.cpu.num_vec_register_writes                  0                       # number of times the vector registers were written
system.cpu.op_class::No_OpClass                     0      0.00%      0.00% # Class of executed instruction
system.cpu.op_class::IntAlu                        14     66.67%     66.67% # Class of executed instruction
system.cpu.op_class::IntMult                        0      0.00%     66.67% # Class of executed instruction
system.cpu.op_class::IntDiv                         0      0.00%     66.67% # Class of executed instruction
system.cpu.op_class::FloatAdd                       0      0.00%     66.67% # Class of executed instruction
system.cpu.op_class::FloatCmp                       0      0.00%     66.67% # Class of executed instruction
system.cpu.op_class::FloatCvt                       0      0.00%     66.67% # Class of executed instruction
system.cpu.op_class::FloatMult                      0      0.00%     66.67% # Class of executed instruction
system.cpu.op_class::FloatMultAcc                   0      0.00%     66.67% # Class of executed instruction
system.cpu.op_class::FloatDiv                       0      0.00%     66.67% # Class of executed instruction
system.cpu.op_class::FloatMisc                      0      0.00%     66.67% # Class of executed instruction
system.cpu.op_class::FloatSqrt                      0      0.00%     66.67% # Class of executed instruction
system.cpu.op_class::SimdAdd                        0      0.00%     66.67% # Class of executed instruction
system.cpu.op_class::SimdAddAcc                     0      0.00%     66.67% # Class of executed instruction
system.cpu.op_class::SimdAlu                        0      0.00%     66.67% # Class of executed instruction
system.cpu.op_class::SimdCmp                        0      0.00%     66.67% # Class of executed instruction
system.cpu.op_class::SimdCvt                        0      0.00%     66.67% # Class of executed instruction
system.cpu.op_class::SimdMisc                       0      0.00%     66.67% # Class of executed instruction
system.cpu.op_class::SimdMult                       0      0.00%     66.67% # Class of executed instruction
system.cpu.op_class::SimdMultAcc                    0      0.00%     66.67% # Class of executed instruction
system.cpu.op_class::SimdShift                      0      0.00%     66.67% # Class of executed instruction
system.cpu.op_class::SimdShiftAcc                   0      0.00%     66.67% # Class of executed instruction
system.cpu.op_class::SimdDiv                        0      0.00%     66.67% # Class of executed instruction
system.cpu.op_class::SimdSqrt                       0      0.00%     66.67% # Class of executed instruction
system.cpu.op_class::SimdFloatAdd                   0      0.00%     66.67% # Class of executed instruction
system.cpu.op_class::SimdFloatAlu                   0      0.00%     66.67% # Class of executed instruction
system.cpu.op_class::SimdFloatCmp                   0      0.00%     66.67% # Class of executed instruction
system.cpu.op_class::SimdFloatCvt                   0      0.00%     66.67% # Class of executed instruction
system.cpu.op_class::SimdFloatDiv                   0      0.00%     66.67% # Class of executed instruction
system.cpu.op_class::SimdFloatMisc                  0      0.00%     66.67% # Class of executed instruction
system.cpu.op_class::SimdFloatMult                  0      0.00%     66.67% # Class of executed instruction
system.cpu.op_class::SimdFloatMultAcc               0      0.00%     66.67% # Class of executed instruction
system.cpu.op_class::SimdFloatSqrt                  0      0.00%     66.67% # Class of executed instruction
system.cpu.op_class::SimdReduceAdd                  0      0.00%     66.67% # Class of executed instruction
system.cpu.op_class::SimdReduceAlu                  0      0.00%     66.67% # Class of executed instruction
system.cpu.op_class::SimdReduceCmp                  0      0.00%     66.67% # Class of executed instruction
system.cpu.op_class::SimdFloatReduceAdd             0      0.00%     66.67% # Class of executed instruction
system.cpu.op_class::SimdFloatReduceCmp             0      0.00%     66.67% # Class of executed instruction
system.cpu.op_class::SimdAes                        0      0.00%     66.67% # Class of executed instruction
system.cpu.op_class::SimdAesMix                     0      0.00%     66.67% # Class of executed instruction
system.cpu.op_class::SimdSha1Hash                   0      0.00%     66.67% # Class of executed instruction
system.cpu.op_class::SimdSha1Hash2                  0      0.00%     66.67% # Class of executed instruction
system.cpu.op_class::SimdSha256Hash                 0      0.00%     66.67% # Class of executed instruction
system.cpu.op_class::SimdSha256Hash2                0      0.00%     66.67% # Class of executed instruction
system.cpu.op_class::SimdShaSigma2                  0      0.00%     66.67% # Class of executed instruction
system.cpu.op_class::SimdShaSigma3                  0      0.00%     66.67% # Class of executed instruction
system.cpu.op_class::SimdPredAlu                    0      0.00%     66.67% # Class of executed instruction
system.cpu.op_class::MemRead                        0      0.00%     66.67% # Class of executed instruction
system.cpu.op_class::MemWrite                       7     33.33%    100.00% # Class of executed instruction
system.cpu.op_class::FloatMemRead                   0      0.00%    100.00% # Class of executed instruction
system.cpu.op_class::FloatMemWrite                  0      0.00%    100.00% # Class of executed instruction
system.cpu.op_class::IprAccess                      0      0.00%    100.00% # Class of executed instruction
system.cpu.op_class::InstPrefetch                   0      0.00%    100.00% # Class of executed instruction
system.cpu.op_class::total                         21                       # Class of executed instruction
system.cpu.workload.numSyscalls                    79                       # Number of system calls
system.membus.snoop_filter.hit_multi_requests            0                       # Number of requests hitting in the snoop filter with multiple (>1) holders of the requested data.
system.membus.snoop_filter.hit_multi_snoops            0                       # Number of snoops hitting in the snoop filter with multiple (>1) holders of the requested data.
system.membus.snoop_filter.hit_single_requests       586078                       # Number of requests hitting in the snoop filter with a single holder of the requested data.
system.membus.snoop_filter.hit_single_snoops            0                       # Number of snoops hitting in the snoop filter with a single holder of the requested data.
system.membus.snoop_filter.tot_requests       1168714                       # Total number of requests made to the snoop filter.
system.membus.snoop_filter.tot_snoops               0                       # Total number of snoops made to the snoop filter.
system.switch_cpus.branchPred.BTBCorrect            0                       # Number of correct BTB predictions (this stat may not work properly.
system.switch_cpus.branchPred.BTBHitPct           nan                       # BTB Hit Percentage
system.switch_cpus.branchPred.BTBHits               0                       # Number of BTB hits
system.switch_cpus.branchPred.BTBLookups            0                       # Number of BTB lookups
system.switch_cpus.branchPred.RASInCorrect        11183                       # Number of incorrect RAS predictions.
system.switch_cpus.branchPred.condIncorrect       713979                       # Number of conditional branches incorrect
system.switch_cpus.branchPred.condPredicted      4068278                       # Number of conditional branches predicted
system.switch_cpus.branchPred.indirectHits       984138                       # Number of indirect target hits.
system.switch_cpus.branchPred.indirectLookups      3006441                       # Number of indirect predictor lookups.
system.switch_cpus.branchPred.indirectMisses      2022303                       # Number of indirect misses.
system.switch_cpus.branchPred.lookups         5498966                       # Number of BP lookups
system.switch_cpus.branchPred.usedRAS          576067                       # Number of times the RAS was used to get a target.
system.switch_cpus.branchPredindirectMispredicted       588494                       # Number of mispredicted indirect branches.
system.switch_cpus.cc_regfile_reads          12636366                       # number of cc regfile reads
system.switch_cpus.cc_regfile_writes          8802276                       # number of cc regfile writes
system.switch_cpus.commit.amos                      0                       # Number of atomic instructions committed
system.switch_cpus.commit.branchMispredicts       778261                       # The number of times a branch was mispredicted
system.switch_cpus.commit.branches            2320534                       # Number of branches committed
system.switch_cpus.commit.bw_lim_events       1103450                       # number cycles where commit BW limit reached
system.switch_cpus.commit.commitNonSpecStalls         1363                       # The number of times commit has been forced to stall to communicate backwards
system.switch_cpus.commit.commitSquashedInsts     17078932                       # The number of squashed insts skipped by commit
system.switch_cpus.commit.committedInsts     10000002                       # Number of instructions committed
system.switch_cpus.commit.committedOps       19351828                       # Number of ops (including micro ops) committed
system.switch_cpus.commit.committed_per_cycle::samples     27228225                       # Number of insts commited each cycle
system.switch_cpus.commit.committed_per_cycle::mean     0.710727                       # Number of insts commited each cycle
system.switch_cpus.commit.committed_per_cycle::stdev     1.860618                       # Number of insts commited each cycle
system.switch_cpus.commit.committed_per_cycle::underflows            0      0.00%      0.00% # Number of insts commited each cycle
system.switch_cpus.commit.committed_per_cycle::0     22071675     81.06%     81.06% # Number of insts commited each cycle
system.switch_cpus.commit.committed_per_cycle::1      1372714      5.04%     86.10% # Number of insts commited each cycle
system.switch_cpus.commit.committed_per_cycle::2       677886      2.49%     88.59% # Number of insts commited each cycle
system.switch_cpus.commit.committed_per_cycle::3      1089176      4.00%     92.59% # Number of insts commited each cycle
system.switch_cpus.commit.committed_per_cycle::4       423470      1.56%     94.15% # Number of insts commited each cycle
system.switch_cpus.commit.committed_per_cycle::5       229816      0.84%     94.99% # Number of insts commited each cycle
system.switch_cpus.commit.committed_per_cycle::6       135012      0.50%     95.49% # Number of insts commited each cycle
system.switch_cpus.commit.committed_per_cycle::7       125026      0.46%     95.95% # Number of insts commited each cycle
system.switch_cpus.commit.committed_per_cycle::8      1103450      4.05%    100.00% # Number of insts commited each cycle
system.switch_cpus.commit.committed_per_cycle::overflows            0      0.00%    100.00% # Number of insts commited each cycle
system.switch_cpus.commit.committed_per_cycle::min_value            0                       # Number of insts commited each cycle
system.switch_cpus.commit.committed_per_cycle::max_value            8                       # Number of insts commited each cycle
system.switch_cpus.commit.committed_per_cycle::total     27228225                       # Number of insts commited each cycle
system.switch_cpus.commit.fp_insts              17342                       # Number of committed floating point instructions.
system.switch_cpus.commit.function_calls       221726                       # Number of function calls committed.
system.switch_cpus.commit.int_insts          19271403                       # Number of committed integer instructions.
system.switch_cpus.commit.loads               2691400                       # Number of loads committed
system.switch_cpus.commit.membars                 280                       # Number of memory barriers committed
system.switch_cpus.commit.op_class_0::No_OpClass        72885      0.38%      0.38% # Class of committed instruction
system.switch_cpus.commit.op_class_0::IntAlu     15126044     78.16%     78.54% # Class of committed instruction
system.switch_cpus.commit.op_class_0::IntMult          182      0.00%     78.54% # Class of committed instruction
system.switch_cpus.commit.op_class_0::IntDiv       144362      0.75%     79.29% # Class of committed instruction
system.switch_cpus.commit.op_class_0::FloatAdd          821      0.00%     79.29% # Class of committed instruction
system.switch_cpus.commit.op_class_0::FloatCmp            0      0.00%     79.29% # Class of committed instruction
system.switch_cpus.commit.op_class_0::FloatCvt         1536      0.01%     79.30% # Class of committed instruction
system.switch_cpus.commit.op_class_0::FloatMult            0      0.00%     79.30% # Class of committed instruction
system.switch_cpus.commit.op_class_0::FloatMultAcc            0      0.00%     79.30% # Class of committed instruction
system.switch_cpus.commit.op_class_0::FloatDiv            0      0.00%     79.30% # Class of committed instruction
system.switch_cpus.commit.op_class_0::FloatMisc            0      0.00%     79.30% # Class of committed instruction
system.switch_cpus.commit.op_class_0::FloatSqrt            0      0.00%     79.30% # Class of committed instruction
system.switch_cpus.commit.op_class_0::SimdAdd           26      0.00%     79.30% # Class of committed instruction
system.switch_cpus.commit.op_class_0::SimdAddAcc            0      0.00%     79.30% # Class of committed instruction
system.switch_cpus.commit.op_class_0::SimdAlu         1682      0.01%     79.31% # Class of committed instruction
system.switch_cpus.commit.op_class_0::SimdCmp            6      0.00%     79.31% # Class of committed instruction
system.switch_cpus.commit.op_class_0::SimdCvt         1430      0.01%     79.32% # Class of committed instruction
system.switch_cpus.commit.op_class_0::SimdMisc         1795      0.01%     79.32% # Class of committed instruction
system.switch_cpus.commit.op_class_0::SimdMult            0      0.00%     79.32% # Class of committed instruction
system.switch_cpus.commit.op_class_0::SimdMultAcc            0      0.00%     79.32% # Class of committed instruction
system.switch_cpus.commit.op_class_0::SimdShift           24      0.00%     79.32% # Class of committed instruction
system.switch_cpus.commit.op_class_0::SimdShiftAcc            0      0.00%     79.32% # Class of committed instruction
system.switch_cpus.commit.op_class_0::SimdDiv            0      0.00%     79.32% # Class of committed instruction
system.switch_cpus.commit.op_class_0::SimdSqrt            0      0.00%     79.32% # Class of committed instruction
system.switch_cpus.commit.op_class_0::SimdFloatAdd            0      0.00%     79.32% # Class of committed instruction
system.switch_cpus.commit.op_class_0::SimdFloatAlu            0      0.00%     79.32% # Class of committed instruction
system.switch_cpus.commit.op_class_0::SimdFloatCmp            0      0.00%     79.32% # Class of committed instruction
system.switch_cpus.commit.op_class_0::SimdFloatCvt           45      0.00%     79.33% # Class of committed instruction
system.switch_cpus.commit.op_class_0::SimdFloatDiv            1      0.00%     79.33% # Class of committed instruction
system.switch_cpus.commit.op_class_0::SimdFloatMisc            0      0.00%     79.33% # Class of committed instruction
system.switch_cpus.commit.op_class_0::SimdFloatMult           22      0.00%     79.33% # Class of committed instruction
system.switch_cpus.commit.op_class_0::SimdFloatMultAcc            0      0.00%     79.33% # Class of committed instruction
system.switch_cpus.commit.op_class_0::SimdFloatSqrt            0      0.00%     79.33% # Class of committed instruction
system.switch_cpus.commit.op_class_0::SimdReduceAdd            0      0.00%     79.33% # Class of committed instruction
system.switch_cpus.commit.op_class_0::SimdReduceAlu            0      0.00%     79.33% # Class of committed instruction
system.switch_cpus.commit.op_class_0::SimdReduceCmp            0      0.00%     79.33% # Class of committed instruction
system.switch_cpus.commit.op_class_0::SimdFloatReduceAdd            0      0.00%     79.33% # Class of committed instruction
system.switch_cpus.commit.op_class_0::SimdFloatReduceCmp            0      0.00%     79.33% # Class of committed instruction
system.switch_cpus.commit.op_class_0::SimdAes            0      0.00%     79.33% # Class of committed instruction
system.switch_cpus.commit.op_class_0::SimdAesMix            0      0.00%     79.33% # Class of committed instruction
system.switch_cpus.commit.op_class_0::SimdSha1Hash            0      0.00%     79.33% # Class of committed instruction
system.switch_cpus.commit.op_class_0::SimdSha1Hash2            0      0.00%     79.33% # Class of committed instruction
system.switch_cpus.commit.op_class_0::SimdSha256Hash            0      0.00%     79.33% # Class of committed instruction
system.switch_cpus.commit.op_class_0::SimdSha256Hash2            0      0.00%     79.33% # Class of committed instruction
system.switch_cpus.commit.op_class_0::SimdShaSigma2            0      0.00%     79.33% # Class of committed instruction
system.switch_cpus.commit.op_class_0::SimdShaSigma3            0      0.00%     79.33% # Class of committed instruction
system.switch_cpus.commit.op_class_0::SimdPredAlu            0      0.00%     79.33% # Class of committed instruction
system.switch_cpus.commit.op_class_0::MemRead      2686882     13.88%     93.21% # Class of committed instruction
system.switch_cpus.commit.op_class_0::MemWrite      1304508      6.74%     99.95% # Class of committed instruction
system.switch_cpus.commit.op_class_0::FloatMemRead         4518      0.02%     99.97% # Class of committed instruction
system.switch_cpus.commit.op_class_0::FloatMemWrite         5059      0.03%    100.00% # Class of committed instruction
system.switch_cpus.commit.op_class_0::IprAccess            0      0.00%    100.00% # Class of committed instruction
system.switch_cpus.commit.op_class_0::InstPrefetch            0      0.00%    100.00% # Class of committed instruction
system.switch_cpus.commit.op_class_0::total     19351828                       # Class of committed instruction
system.switch_cpus.commit.refs                4000967                       # Number of memory references committed
system.switch_cpus.commit.swp_count                 0                       # Number of s/w prefetches committed
system.switch_cpus.commit.vec_insts                 0                       # Number of committed Vector instructions.
system.switch_cpus.committedInsts            10000002                       # Number of Instructions Simulated
system.switch_cpus.committedOps              19351828                       # Number of Ops (including micro ops) Simulated
system.switch_cpus.cpi                       6.329083                       # CPI: Cycles Per Instruction
system.switch_cpus.cpi_total                 6.329083                       # CPI: Total CPI of All Threads
system.switch_cpus.decode.BlockedCycles       7569000                       # Number of cycles decode is blocked
system.switch_cpus.decode.DecodedInsts       42135588                       # Number of instructions handled by decode
system.switch_cpus.decode.IdleCycles         15815513                       # Number of cycles decode is idle
system.switch_cpus.decode.RunCycles           5478548                       # Number of cycles decode is running
system.switch_cpus.decode.SquashCycles         779439                       # Number of cycles decode is squashing
system.switch_cpus.decode.UnblockCycles        585432                       # Number of cycles decode is unblocking
system.switch_cpus.dtb.rdAccesses             4175642                       # TLB accesses on read requests
system.switch_cpus.dtb.rdMisses                 51910                       # TLB misses on read requests
system.switch_cpus.dtb.wrAccesses             1851261                       # TLB accesses on write requests
system.switch_cpus.dtb.wrMisses                  7066                       # TLB misses on write requests
system.switch_cpus.fetch.Branches             5498966                       # Number of branches that fetch encountered
system.switch_cpus.fetch.CacheLines           2710109                       # Number of cache lines fetched
system.switch_cpus.fetch.Cycles              12036111                       # Number of cycles fetch has run and was not squashing or blocked
system.switch_cpus.fetch.IcacheSquashes        451610                       # Number of outstanding Icache misses that were squashed
system.switch_cpus.fetch.IcacheWaitRetryStallCycles         7884                       # Number of stall cycles due to full MSHR
system.switch_cpus.fetch.Insts               22859127                       # Number of instructions fetch has processed
system.switch_cpus.fetch.MiscStallCycles        70993                       # Number of cycles fetch has spent waiting on interrupts, or bad addresses, or out of MSHRs
system.switch_cpus.fetch.PendingQuiesceStallCycles        16019                       # Number of stall cycles due to pending quiesce instructions
system.switch_cpus.fetch.PendingTrapStallCycles       405668                       # Number of stall cycles due to pending traps
system.switch_cpus.fetch.SquashCycles         1558878                       # Number of cycles fetch has spent squashing
system.switch_cpus.fetch.branchRate          0.086884                       # Number of branch fetches per cycle
system.switch_cpus.fetch.icacheStallCycles     16911820                       # Number of cycles fetch is stalled on an Icache miss
system.switch_cpus.fetch.predictedBranches      1560205                       # Number of branches that fetch has predicted taken
system.switch_cpus.fetch.rate                0.361176                       # Number of inst fetches per cycle
system.switch_cpus.fetch.rateDist::samples     30227934                       # Number of instructions fetched each cycle (Total)
system.switch_cpus.fetch.rateDist::mean      1.500737                       # Number of instructions fetched each cycle (Total)
system.switch_cpus.fetch.rateDist::stdev     2.959777                       # Number of instructions fetched each cycle (Total)
system.switch_cpus.fetch.rateDist::underflows            0      0.00%      0.00% # Number of instructions fetched each cycle (Total)
system.switch_cpus.fetch.rateDist::0         23343509     77.22%     77.22% # Number of instructions fetched each cycle (Total)
system.switch_cpus.fetch.rateDist::1           349423      1.16%     78.38% # Number of instructions fetched each cycle (Total)
system.switch_cpus.fetch.rateDist::2           299235      0.99%     79.37% # Number of instructions fetched each cycle (Total)
system.switch_cpus.fetch.rateDist::3           299415      0.99%     80.36% # Number of instructions fetched each cycle (Total)
system.switch_cpus.fetch.rateDist::4           461298      1.53%     81.89% # Number of instructions fetched each cycle (Total)
system.switch_cpus.fetch.rateDist::5           337694      1.12%     83.00% # Number of instructions fetched each cycle (Total)
system.switch_cpus.fetch.rateDist::6           373516      1.24%     84.24% # Number of instructions fetched each cycle (Total)
system.switch_cpus.fetch.rateDist::7           367459      1.22%     85.46% # Number of instructions fetched each cycle (Total)
system.switch_cpus.fetch.rateDist::8          4396385     14.54%    100.00% # Number of instructions fetched each cycle (Total)
system.switch_cpus.fetch.rateDist::overflows            0      0.00%    100.00% # Number of instructions fetched each cycle (Total)
system.switch_cpus.fetch.rateDist::min_value            0                       # Number of instructions fetched each cycle (Total)
system.switch_cpus.fetch.rateDist::max_value            8                       # Number of instructions fetched each cycle (Total)
system.switch_cpus.fetch.rateDist::total     30227934                       # Number of instructions fetched each cycle (Total)
system.switch_cpus.fp_regfile_reads             27539                       # number of floating regfile reads
system.switch_cpus.fp_regfile_writes            13680                       # number of floating regfile writes
system.switch_cpus.idleCycles                33062910                       # Total number of cycles that the CPU has spent unscheduled due to idling
system.switch_cpus.iew.branchMispredicts       978053                       # Number of branch mispredicts detected at execute
system.switch_cpus.iew.exec_branches          3150497                       # Number of branches executed
system.switch_cpus.iew.exec_nop                     0                       # number of nop insts executed
system.switch_cpus.iew.exec_rate             0.469495                       # Inst execution rate
system.switch_cpus.iew.exec_refs              6067749                       # number of memory reference insts executed
system.switch_cpus.iew.exec_stores            1851019                       # Number of stores executed
system.switch_cpus.iew.exec_swp                     0                       # number of swp insts executed
system.switch_cpus.iew.iewBlockCycles         4124185                       # Number of cycles IEW is blocking
system.switch_cpus.iew.iewDispLoadInsts       5373331                       # Number of dispatched load instructions
system.switch_cpus.iew.iewDispNonSpecInsts        11571                       # Number of dispatched non-speculative instructions
system.switch_cpus.iew.iewDispSquashedInsts        49408                       # Number of squashed instructions skipped by dispatch
system.switch_cpus.iew.iewDispStoreInsts      2439301                       # Number of dispatched store instructions
system.switch_cpus.iew.iewDispatchedInsts     36422813                       # Number of instructions dispatched to IQ
system.switch_cpus.iew.iewExecLoadInsts       4216730                       # Number of load instructions executed
system.switch_cpus.iew.iewExecSquashedInsts      1203008                       # Number of squashed instructions skipped in execute
system.switch_cpus.iew.iewExecutedInsts      29714704                       # Number of executed instructions
system.switch_cpus.iew.iewIQFullEvents          31064                       # Number of times the IQ has become full, causing a stall
system.switch_cpus.iew.iewIdleCycles                0                       # Number of cycles IEW is idle
system.switch_cpus.iew.iewLSQFullEvents        180741                       # Number of times the LSQ has become full, causing a stall
system.switch_cpus.iew.iewSquashCycles         779439                       # Number of cycles IEW is squashing
system.switch_cpus.iew.iewUnblockCycles        224108                       # Number of cycles IEW is unblocking
system.switch_cpus.iew.lsq.thread0.blockedLoads            0                       # Number of blocked loads due to partial load-store forwarding
system.switch_cpus.iew.lsq.thread0.cacheBlocked        15872                       # Number of times an access to memory failed due to the cache being blocked
system.switch_cpus.iew.lsq.thread0.forwLoads       344054                       # Number of loads that had data forwarded from stores
system.switch_cpus.iew.lsq.thread0.ignoredResponses         4170                       # Number of memory responses ignored because the instruction is squashed
system.switch_cpus.iew.lsq.thread0.invAddrLoads            0                       # Number of loads ignored due to an invalid address
system.switch_cpus.iew.lsq.thread0.invAddrSwpfs            0                       # Number of software prefetches ignored due to an invalid address
system.switch_cpus.iew.lsq.thread0.memOrderViolation         1050                       # Number of memory ordering violations
system.switch_cpus.iew.lsq.thread0.rescheduledLoads          358                       # Number of loads that were rescheduled
system.switch_cpus.iew.lsq.thread0.squashedLoads      2681909                       # Number of loads squashed
system.switch_cpus.iew.lsq.thread0.squashedStores      1129728                       # Number of stores squashed
system.switch_cpus.iew.memOrderViolationEvents         1050                       # Number of memory order violations
system.switch_cpus.iew.predictedNotTakenIncorrect       937178                       # Number of branches that were predicted not taken incorrectly
system.switch_cpus.iew.predictedTakenIncorrect        40875                       # Number of branches that were predicted taken incorrectly
system.switch_cpus.iew.wb_consumers          33043333                       # num instructions consuming a value
system.switch_cpus.iew.wb_count              28981446                       # cumulative count of insts written-back
system.switch_cpus.iew.wb_fanout             0.620636                       # average fanout of values written-back
system.switch_cpus.iew.wb_producers          20507869                       # num instructions producing a value
system.switch_cpus.iew.wb_rate               0.457909                       # insts written-back per cycle
system.switch_cpus.iew.wb_sent               29264572                       # cumulative count of insts sent to commit
system.switch_cpus.int_regfile_reads         43082122                       # number of integer regfile reads
system.switch_cpus.int_regfile_writes        24194319                       # number of integer regfile writes
system.switch_cpus.ipc                       0.158001                       # IPC: Instructions Per Cycle
system.switch_cpus.ipc_total                 0.158001                       # IPC: Total IPC of All Threads
system.switch_cpus.iq.FU_type_0::No_OpClass       363340      1.18%      1.18% # Type of FU issued
system.switch_cpus.iq.FU_type_0::IntAlu      23905928     77.32%     78.50% # Type of FU issued
system.switch_cpus.iq.FU_type_0::IntMult          465      0.00%     78.50% # Type of FU issued
system.switch_cpus.iq.FU_type_0::IntDiv        182734      0.59%     79.09% # Type of FU issued
system.switch_cpus.iq.FU_type_0::FloatAdd         1429      0.00%     79.09% # Type of FU issued
system.switch_cpus.iq.FU_type_0::FloatCmp            0      0.00%     79.09% # Type of FU issued
system.switch_cpus.iq.FU_type_0::FloatCvt         5168      0.02%     79.11% # Type of FU issued
system.switch_cpus.iq.FU_type_0::FloatMult            0      0.00%     79.11% # Type of FU issued
system.switch_cpus.iq.FU_type_0::FloatMultAcc            0      0.00%     79.11% # Type of FU issued
system.switch_cpus.iq.FU_type_0::FloatDiv            1      0.00%     79.11% # Type of FU issued
system.switch_cpus.iq.FU_type_0::FloatMisc            0      0.00%     79.11% # Type of FU issued
system.switch_cpus.iq.FU_type_0::FloatSqrt            0      0.00%     79.11% # Type of FU issued
system.switch_cpus.iq.FU_type_0::SimdAdd           54      0.00%     79.11% # Type of FU issued
system.switch_cpus.iq.FU_type_0::SimdAddAcc            0      0.00%     79.11% # Type of FU issued
system.switch_cpus.iq.FU_type_0::SimdAlu         2633      0.01%     79.12% # Type of FU issued
system.switch_cpus.iq.FU_type_0::SimdCmp            6      0.00%     79.12% # Type of FU issued
system.switch_cpus.iq.FU_type_0::SimdCvt         1961      0.01%     79.13% # Type of FU issued
system.switch_cpus.iq.FU_type_0::SimdMisc         2867      0.01%     79.13% # Type of FU issued
system.switch_cpus.iq.FU_type_0::SimdMult            0      0.00%     79.13% # Type of FU issued
system.switch_cpus.iq.FU_type_0::SimdMultAcc            0      0.00%     79.13% # Type of FU issued
system.switch_cpus.iq.FU_type_0::SimdShift           56      0.00%     79.13% # Type of FU issued
system.switch_cpus.iq.FU_type_0::SimdShiftAcc            0      0.00%     79.13% # Type of FU issued
system.switch_cpus.iq.FU_type_0::SimdDiv            0      0.00%     79.13% # Type of FU issued
system.switch_cpus.iq.FU_type_0::SimdSqrt            0      0.00%     79.13% # Type of FU issued
system.switch_cpus.iq.FU_type_0::SimdFloatAdd            0      0.00%     79.13% # Type of FU issued
system.switch_cpus.iq.FU_type_0::SimdFloatAlu            0      0.00%     79.13% # Type of FU issued
system.switch_cpus.iq.FU_type_0::SimdFloatCmp            0      0.00%     79.13% # Type of FU issued
system.switch_cpus.iq.FU_type_0::SimdFloatCvt          735      0.00%     79.14% # Type of FU issued
system.switch_cpus.iq.FU_type_0::SimdFloatDiv            2      0.00%     79.14% # Type of FU issued
system.switch_cpus.iq.FU_type_0::SimdFloatMisc            0      0.00%     79.14% # Type of FU issued
system.switch_cpus.iq.FU_type_0::SimdFloatMult          132      0.00%     79.14% # Type of FU issued
system.switch_cpus.iq.FU_type_0::SimdFloatMultAcc            0      0.00%     79.14% # Type of FU issued
system.switch_cpus.iq.FU_type_0::SimdFloatSqrt            1      0.00%     79.14% # Type of FU issued
system.switch_cpus.iq.FU_type_0::SimdReduceAdd            0      0.00%     79.14% # Type of FU issued
system.switch_cpus.iq.FU_type_0::SimdReduceAlu            0      0.00%     79.14% # Type of FU issued
system.switch_cpus.iq.FU_type_0::SimdReduceCmp            0      0.00%     79.14% # Type of FU issued
system.switch_cpus.iq.FU_type_0::SimdFloatReduceAdd            0      0.00%     79.14% # Type of FU issued
system.switch_cpus.iq.FU_type_0::SimdFloatReduceCmp            0      0.00%     79.14% # Type of FU issued
system.switch_cpus.iq.FU_type_0::SimdAes            0      0.00%     79.14% # Type of FU issued
system.switch_cpus.iq.FU_type_0::SimdAesMix            0      0.00%     79.14% # Type of FU issued
system.switch_cpus.iq.FU_type_0::SimdSha1Hash            0      0.00%     79.14% # Type of FU issued
system.switch_cpus.iq.FU_type_0::SimdSha1Hash2            0      0.00%     79.14% # Type of FU issued
system.switch_cpus.iq.FU_type_0::SimdSha256Hash            0      0.00%     79.14% # Type of FU issued
system.switch_cpus.iq.FU_type_0::SimdSha256Hash2            0      0.00%     79.14% # Type of FU issued
system.switch_cpus.iq.FU_type_0::SimdShaSigma2            0      0.00%     79.14% # Type of FU issued
system.switch_cpus.iq.FU_type_0::SimdShaSigma3            0      0.00%     79.14% # Type of FU issued
system.switch_cpus.iq.FU_type_0::SimdPredAlu            0      0.00%     79.14% # Type of FU issued
system.switch_cpus.iq.FU_type_0::MemRead      4440789     14.36%     93.50% # Type of FU issued
system.switch_cpus.iq.FU_type_0::MemWrite      1997548      6.46%     99.96% # Type of FU issued
system.switch_cpus.iq.FU_type_0::FloatMemRead         6706      0.02%     99.98% # Type of FU issued
system.switch_cpus.iq.FU_type_0::FloatMemWrite         5163      0.02%    100.00% # Type of FU issued
system.switch_cpus.iq.FU_type_0::IprAccess            0      0.00%    100.00% # Type of FU issued
system.switch_cpus.iq.FU_type_0::InstPrefetch            0      0.00%    100.00% # Type of FU issued
system.switch_cpus.iq.FU_type_0::total       30917718                       # Type of FU issued
system.switch_cpus.iq.fp_alu_accesses           28002                       # Number of floating point alu accesses
system.switch_cpus.iq.fp_inst_queue_reads        55911                       # Number of floating instruction queue reads
system.switch_cpus.iq.fp_inst_queue_wakeup_accesses        25742                       # Number of floating instruction queue wakeup accesses
system.switch_cpus.iq.fp_inst_queue_writes        48202                       # Number of floating instruction queue writes
system.switch_cpus.iq.fu_busy_cnt              505230                       # FU busy when requested
system.switch_cpus.iq.fu_busy_rate           0.016341                       # FU busy rate (busy events/executed inst)
system.switch_cpus.iq.fu_full::No_OpClass            0      0.00%      0.00% # attempts to use FU when none available
system.switch_cpus.iq.fu_full::IntAlu          467034     92.44%     92.44% # attempts to use FU when none available
system.switch_cpus.iq.fu_full::IntMult              0      0.00%     92.44% # attempts to use FU when none available
system.switch_cpus.iq.fu_full::IntDiv               0      0.00%     92.44% # attempts to use FU when none available
system.switch_cpus.iq.fu_full::FloatAdd             0      0.00%     92.44% # attempts to use FU when none available
system.switch_cpus.iq.fu_full::FloatCmp             0      0.00%     92.44% # attempts to use FU when none available
system.switch_cpus.iq.fu_full::FloatCvt             9      0.00%     92.44% # attempts to use FU when none available
system.switch_cpus.iq.fu_full::FloatMult            0      0.00%     92.44% # attempts to use FU when none available
system.switch_cpus.iq.fu_full::FloatMultAcc            0      0.00%     92.44% # attempts to use FU when none available
system.switch_cpus.iq.fu_full::FloatDiv             0      0.00%     92.44% # attempts to use FU when none available
system.switch_cpus.iq.fu_full::FloatMisc            0      0.00%     92.44% # attempts to use FU when none available
system.switch_cpus.iq.fu_full::FloatSqrt            0      0.00%     92.44% # attempts to use FU when none available
system.switch_cpus.iq.fu_full::SimdAdd              0      0.00%     92.44% # attempts to use FU when none available
system.switch_cpus.iq.fu_full::SimdAddAcc            0      0.00%     92.44% # attempts to use FU when none available
system.switch_cpus.iq.fu_full::SimdAlu            158      0.03%     92.47% # attempts to use FU when none available
system.switch_cpus.iq.fu_full::SimdCmp              0      0.00%     92.47% # attempts to use FU when none available
system.switch_cpus.iq.fu_full::SimdCvt             10      0.00%     92.47% # attempts to use FU when none available
system.switch_cpus.iq.fu_full::SimdMisc             0      0.00%     92.47% # attempts to use FU when none available
system.switch_cpus.iq.fu_full::SimdMult             0      0.00%     92.47% # attempts to use FU when none available
system.switch_cpus.iq.fu_full::SimdMultAcc            0      0.00%     92.47% # attempts to use FU when none available
system.switch_cpus.iq.fu_full::SimdShift            0      0.00%     92.47% # attempts to use FU when none available
system.switch_cpus.iq.fu_full::SimdShiftAcc            0      0.00%     92.47% # attempts to use FU when none available
system.switch_cpus.iq.fu_full::SimdDiv              0      0.00%     92.47% # attempts to use FU when none available
system.switch_cpus.iq.fu_full::SimdSqrt             0      0.00%     92.47% # attempts to use FU when none available
system.switch_cpus.iq.fu_full::SimdFloatAdd            0      0.00%     92.47% # attempts to use FU when none available
system.switch_cpus.iq.fu_full::SimdFloatAlu            0      0.00%     92.47% # attempts to use FU when none available
system.switch_cpus.iq.fu_full::SimdFloatCmp            0      0.00%     92.47% # attempts to use FU when none available
system.switch_cpus.iq.fu_full::SimdFloatCvt            0      0.00%     92.47% # attempts to use FU when none available
system.switch_cpus.iq.fu_full::SimdFloatDiv            0      0.00%     92.47% # attempts to use FU when none available
system.switch_cpus.iq.fu_full::SimdFloatMisc            0      0.00%     92.47% # attempts to use FU when none available
system.switch_cpus.iq.fu_full::SimdFloatMult            0      0.00%     92.47% # attempts to use FU when none available
system.switch_cpus.iq.fu_full::SimdFloatMultAcc            0      0.00%     92.47% # attempts to use FU when none available
system.switch_cpus.iq.fu_full::SimdFloatSqrt            0      0.00%     92.47% # attempts to use FU when none available
system.switch_cpus.iq.fu_full::SimdReduceAdd            0      0.00%     92.47% # attempts to use FU when none available
system.switch_cpus.iq.fu_full::SimdReduceAlu            0      0.00%     92.47% # attempts to use FU when none available
system.switch_cpus.iq.fu_full::SimdReduceCmp            0      0.00%     92.47% # attempts to use FU when none available
system.switch_cpus.iq.fu_full::SimdFloatReduceAdd            0      0.00%     92.47% # attempts to use FU when none available
system.switch_cpus.iq.fu_full::SimdFloatReduceCmp            0      0.00%     92.47% # attempts to use FU when none available
system.switch_cpus.iq.fu_full::SimdAes              0      0.00%     92.47% # attempts to use FU when none available
system.switch_cpus.iq.fu_full::SimdAesMix            0      0.00%     92.47% # attempts to use FU when none available
system.switch_cpus.iq.fu_full::SimdSha1Hash            0      0.00%     92.47% # attempts to use FU when none available
system.switch_cpus.iq.fu_full::SimdSha1Hash2            0      0.00%     92.47% # attempts to use FU when none available
system.switch_cpus.iq.fu_full::SimdSha256Hash            0      0.00%     92.47% # attempts to use FU when none available
system.switch_cpus.iq.fu_full::SimdSha256Hash2            0      0.00%     92.47% # attempts to use FU when none available
system.switch_cpus.iq.fu_full::SimdShaSigma2            0      0.00%     92.47% # attempts to use FU when none available
system.switch_cpus.iq.fu_full::SimdShaSigma3            0      0.00%     92.47% # attempts to use FU when none available
system.switch_cpus.iq.fu_full::SimdPredAlu            0      0.00%     92.47% # attempts to use FU when none available
system.switch_cpus.iq.fu_full::MemRead          24731      4.89%     97.37% # attempts to use FU when none available
system.switch_cpus.iq.fu_full::MemWrite         12765      2.53%     99.90% # attempts to use FU when none available
system.switch_cpus.iq.fu_full::FloatMemRead          393      0.08%     99.97% # attempts to use FU when none available
system.switch_cpus.iq.fu_full::FloatMemWrite          130      0.03%    100.00% # attempts to use FU when none available
system.switch_cpus.iq.fu_full::IprAccess            0      0.00%    100.00% # attempts to use FU when none available
system.switch_cpus.iq.fu_full::InstPrefetch            0      0.00%    100.00% # attempts to use FU when none available
system.switch_cpus.iq.int_alu_accesses       31031606                       # Number of integer alu accesses
system.switch_cpus.iq.int_inst_queue_reads     92701691                       # Number of integer instruction queue reads
system.switch_cpus.iq.int_inst_queue_wakeup_accesses     28955704                       # Number of integer instruction queue wakeup accesses
system.switch_cpus.iq.int_inst_queue_writes     53446376                       # Number of integer instruction queue writes
system.switch_cpus.iq.iqInstsAdded           36390347                       # Number of instructions added to the IQ (excludes non-spec)
system.switch_cpus.iq.iqInstsIssued          30917718                       # Number of instructions issued
system.switch_cpus.iq.iqNonSpecInstsAdded        32466                       # Number of non-speculative instructions added to the IQ
system.switch_cpus.iq.iqSquashedInstsExamined     17070850                       # Number of squashed instructions iterated over during squash; mainly for profiling
system.switch_cpus.iq.iqSquashedInstsIssued       189008                       # Number of squashed instructions issued
system.switch_cpus.iq.iqSquashedNonSpecRemoved        31103                       # Number of squashed non-spec instructions that were removed
system.switch_cpus.iq.iqSquashedOperandsExamined     23490167                       # Number of squashed operands that are examined and possibly removed from graph
system.switch_cpus.iq.issued_per_cycle::samples     30227934                       # Number of insts issued each cycle
system.switch_cpus.iq.issued_per_cycle::mean     1.022819                       # Number of insts issued each cycle
system.switch_cpus.iq.issued_per_cycle::stdev     1.968216                       # Number of insts issued each cycle
system.switch_cpus.iq.issued_per_cycle::underflows            0      0.00%      0.00% # Number of insts issued each cycle
system.switch_cpus.iq.issued_per_cycle::0     21624084     71.54%     71.54% # Number of insts issued each cycle
system.switch_cpus.iq.issued_per_cycle::1      1792506      5.93%     77.47% # Number of insts issued each cycle
system.switch_cpus.iq.issued_per_cycle::2      1530319      5.06%     82.53% # Number of insts issued each cycle
system.switch_cpus.iq.issued_per_cycle::3      1196652      3.96%     86.49% # Number of insts issued each cycle
system.switch_cpus.iq.issued_per_cycle::4      1146492      3.79%     90.28% # Number of insts issued each cycle
system.switch_cpus.iq.issued_per_cycle::5       977368      3.23%     93.51% # Number of insts issued each cycle
system.switch_cpus.iq.issued_per_cycle::6      1011137      3.35%     96.86% # Number of insts issued each cycle
system.switch_cpus.iq.issued_per_cycle::7       660020      2.18%     99.04% # Number of insts issued each cycle
system.switch_cpus.iq.issued_per_cycle::8       289356      0.96%    100.00% # Number of insts issued each cycle
system.switch_cpus.iq.issued_per_cycle::overflows            0      0.00%    100.00% # Number of insts issued each cycle
system.switch_cpus.iq.issued_per_cycle::min_value            0                       # Number of insts issued each cycle
system.switch_cpus.iq.issued_per_cycle::max_value            8                       # Number of insts issued each cycle
system.switch_cpus.iq.issued_per_cycle::total     30227934                       # Number of insts issued each cycle
system.switch_cpus.iq.rate                   0.488502                       # Inst issue rate
system.switch_cpus.iq.vec_alu_accesses              0                       # Number of vector alu accesses
system.switch_cpus.iq.vec_inst_queue_reads            0                       # Number of vector instruction queue reads
system.switch_cpus.iq.vec_inst_queue_wakeup_accesses            0                       # Number of vector instruction queue wakeup accesses
system.switch_cpus.iq.vec_inst_queue_writes            0                       # Number of vector instruction queue writes
system.switch_cpus.itb.rdAccesses                   0                       # TLB accesses on read requests
system.switch_cpus.itb.rdMisses                     0                       # TLB misses on read requests
system.switch_cpus.itb.wrAccesses             2777782                       # TLB accesses on write requests
system.switch_cpus.itb.wrMisses                109082                       # TLB misses on write requests
system.switch_cpus.memDep0.conflictingLoads       161411                       # Number of conflicting loads.
system.switch_cpus.memDep0.conflictingStores       135788                       # Number of conflicting stores.
system.switch_cpus.memDep0.insertedLoads      5373331                       # Number of loads inserted to the mem dependence unit.
system.switch_cpus.memDep0.insertedStores      2439301                       # Number of stores inserted to the mem dependence unit.
system.switch_cpus.misc_regfile_reads        13017274                       # number of misc regfile reads
system.switch_cpus.misc_regfile_writes            865                       # number of misc regfile writes
system.switch_cpus.numCycles                 63290844                       # number of cpu cycles simulated
system.switch_cpus.numWorkItemsCompleted            0                       # number of work items this cpu completed
system.switch_cpus.numWorkItemsStarted              0                       # number of work items this cpu started
system.switch_cpus.rename.BlockCycles         6139537                       # Number of cycles rename is blocking
system.switch_cpus.rename.CommittedMaps      22783330                       # Number of HB maps that are committed
system.switch_cpus.rename.FullRegisterEvents          264                       # Number of times there has been no free registers
system.switch_cpus.rename.IQFullEvents         434180                       # Number of times rename has blocked due to IQ full
system.switch_cpus.rename.IdleCycles         16163639                       # Number of cycles rename is idle
system.switch_cpus.rename.LQFullEvents         252716                       # Number of times rename has blocked due to LQ full
system.switch_cpus.rename.ROBFullEvents         91329                       # Number of times rename has blocked due to ROB full
system.switch_cpus.rename.RenameLookups     100060027                       # Number of register rename lookups that rename has made
system.switch_cpus.rename.RenamedInsts       40176474                       # Number of instructions processed by rename
system.switch_cpus.rename.RenamedOperands     45015658                       # Number of destination operands rename has renamed
system.switch_cpus.rename.RunCycles           5630332                       # Number of cycles rename is running
system.switch_cpus.rename.SQFullEvents         639056                       # Number of times rename has blocked due to SQ full
system.switch_cpus.rename.SquashCycles         779439                       # Number of cycles rename is squashing
system.switch_cpus.rename.UnblockCycles       1452776                       # Number of cycles rename is unblocking
system.switch_cpus.rename.UndoneMaps         22232161                       # Number of HB maps that are undone due to squashing
system.switch_cpus.rename.fp_rename_lookups        39555                       # Number of floating rename lookups
system.switch_cpus.rename.int_rename_lookups     62553341                       # Number of integer rename lookups
system.switch_cpus.rename.serializeStallCycles        62210                       # count of cycles rename stalled for serializing inst
system.switch_cpus.rename.serializingInsts         1471                       # count of serializing insts renamed
system.switch_cpus.rename.skidInsts           1989999                       # count of insts added to the skid buffer
system.switch_cpus.rename.tempSerializingInsts         1429                       # count of temporary serializing insts renamed
system.switch_cpus.rob.rob_reads             62549711                       # The number of ROB reads
system.switch_cpus.rob.rob_writes            75903250                       # The number of ROB writes
system.switch_cpus.timesIdled                  411350                       # Number of times that the entire CPU went into an idle state and unscheduled itself
system.tol2bus.snoop_filter.hit_multi_requests        41027                       # Number of requests hitting in the snoop filter with multiple (>1) holders of the requested data.
system.tol2bus.snoop_filter.hit_multi_snoops         7105                       # Number of snoops hitting in the snoop filter with multiple (>1) holders of the requested data.
system.tol2bus.snoop_filter.hit_single_requests      1010673                       # Number of requests hitting in the snoop filter with a single holder of the requested data.
system.tol2bus.snoop_filter.hit_single_snoops       164931                       # Number of snoops hitting in the snoop filter with a single holder of the requested data.
system.tol2bus.snoop_filter.tot_requests      2027915                       # Total number of requests made to the snoop filter.
system.tol2bus.snoop_filter.tot_snoops         172036                       # Total number of snoops made to the snoop filter.
system.membus.trans_dist::ReadResp             549804                       # Transaction distribution
system.membus.trans_dist::WritebackDirty        55838                       # Transaction distribution
system.membus.trans_dist::CleanEvict           526500                       # Transaction distribution
system.membus.trans_dist::UpgradeReq             2705                       # Transaction distribution
system.membus.trans_dist::ReadExReq             33867                       # Transaction distribution
system.membus.trans_dist::ReadExResp            33867                       # Transaction distribution
system.membus.trans_dist::ReadSharedReq        549804                       # Transaction distribution
system.membus.pkt_count_system.l2.mem_side::system.mem_ctrls.port      1752385                       # Packet count per connected master and slave (bytes)
system.membus.pkt_count_system.l2.mem_side::total      1752385                       # Packet count per connected master and slave (bytes)
system.membus.pkt_count::total                1752385                       # Packet count per connected master and slave (bytes)
system.membus.pkt_size_system.l2.mem_side::system.mem_ctrls.port     40928576                       # Cumulative packet size per connected master and slave (bytes)
system.membus.pkt_size_system.l2.mem_side::total     40928576                       # Cumulative packet size per connected master and slave (bytes)
system.membus.pkt_size::total                40928576                       # Cumulative packet size per connected master and slave (bytes)
system.membus.snoops                                0                       # Total snoops (count)
system.membus.snoopTraffic                          0                       # Total snoop traffic (bytes)
system.membus.snoop_fanout::samples            586376                       # Request fanout histogram
system.membus.snoop_fanout::mean                    0                       # Request fanout histogram
system.membus.snoop_fanout::stdev                   0                       # Request fanout histogram
system.membus.snoop_fanout::underflows              0      0.00%      0.00% # Request fanout histogram
system.membus.snoop_fanout::0                  586376    100.00%    100.00% # Request fanout histogram
system.membus.snoop_fanout::1                       0      0.00%    100.00% # Request fanout histogram
system.membus.snoop_fanout::overflows               0      0.00%    100.00% # Request fanout histogram
system.membus.snoop_fanout::min_value               0                       # Request fanout histogram
system.membus.snoop_fanout::max_value               0                       # Request fanout histogram
system.membus.snoop_fanout::total              586376                       # Request fanout histogram
system.membus.reqLayer2.occupancy          1539073500                       # Layer occupancy (ticks)
system.membus.reqLayer2.utilization               4.9                       # Layer utilization (%)
system.membus.respLayer1.occupancy         3139320000                       # Layer occupancy (ticks)
system.membus.respLayer1.utilization              9.9                       # Layer utilization (%)
system.membus.power_state.pwrStateResidencyTicks::UNDEFINED  31645432500                       # Cumulative time (in ticks) in various power states
system.switch_cpus.dtb.walker.power_state.pwrStateResidencyTicks::UNDEFINED  31645432500                       # Cumulative time (in ticks) in various power states
system.switch_cpus.itb.walker.power_state.pwrStateResidencyTicks::UNDEFINED  31645432500                       # Cumulative time (in ticks) in various power states
system.switch_cpus.power_state.pwrStateResidencyTicks::OFF  31645432500                       # Cumulative time (in ticks) in various power states
system.tol2bus.trans_dist::ReadResp            954281                       # Transaction distribution
system.tol2bus.trans_dist::WritebackDirty       174564                       # Transaction distribution
system.tol2bus.trans_dist::WritebackClean       633504                       # Transaction distribution
system.tol2bus.trans_dist::CleanEvict          882643                       # Transaction distribution
system.tol2bus.trans_dist::UpgradeReq            5918                       # Transaction distribution
system.tol2bus.trans_dist::UpgradeResp           5918                       # Transaction distribution
system.tol2bus.trans_dist::ReadExReq            58953                       # Transaction distribution
system.tol2bus.trans_dist::ReadExResp           58953                       # Transaction distribution
system.tol2bus.trans_dist::ReadCleanReq        637912                       # Transaction distribution
system.tol2bus.trans_dist::ReadSharedReq       316370                       # Transaction distribution
system.tol2bus.pkt_count_system.cpu.icache.mem_side::system.l2.cpu_side      1903388                       # Packet count per connected master and slave (bytes)
system.tol2bus.pkt_count_system.cpu.dcache.mem_side::system.l2.cpu_side      1137739                       # Packet count per connected master and slave (bytes)
system.tol2bus.pkt_count::total               3041127                       # Packet count per connected master and slave (bytes)
system.tol2bus.pkt_size_system.cpu.icache.mem_side::system.l2.cpu_side     80990464                       # Cumulative packet size per connected master and slave (bytes)
system.tol2bus.pkt_size_system.cpu.dcache.mem_side::system.l2.cpu_side     31619072                       # Cumulative packet size per connected master and slave (bytes)
system.tol2bus.pkt_size::total              112609536                       # Cumulative packet size per connected master and slave (bytes)
system.tol2bus.snoops                          687889                       # Total snoops (count)
system.tol2bus.snoopTraffic                   3953792                       # Total snoop traffic (bytes)
system.tol2bus.snoop_fanout::samples          1701102                       # Request fanout histogram
system.tol2bus.snoop_fanout::mean            0.129427                       # Request fanout histogram
system.tol2bus.snoop_fanout::stdev           0.347892                       # Request fanout histogram
system.tol2bus.snoop_fanout::underflows             0      0.00%      0.00% # Request fanout histogram
system.tol2bus.snoop_fanout::0                1488039     87.48%     87.48% # Request fanout histogram
system.tol2bus.snoop_fanout::1                 205958     12.11%     99.58% # Request fanout histogram
system.tol2bus.snoop_fanout::2                   7105      0.42%    100.00% # Request fanout histogram
system.tol2bus.snoop_fanout::3                      0      0.00%    100.00% # Request fanout histogram
system.tol2bus.snoop_fanout::4                      0      0.00%    100.00% # Request fanout histogram
system.tol2bus.snoop_fanout::overflows              0      0.00%    100.00% # Request fanout histogram
system.tol2bus.snoop_fanout::min_value              0                       # Request fanout histogram
system.tol2bus.snoop_fanout::max_value              2                       # Request fanout histogram
system.tol2bus.snoop_fanout::total            1701102                       # Request fanout histogram
system.tol2bus.reqLayer0.occupancy         1766187995                       # Layer occupancy (ticks)
system.tol2bus.reqLayer0.utilization              5.6                       # Layer utilization (%)
system.tol2bus.respLayer1.occupancy         566239398                       # Layer occupancy (ticks)
system.tol2bus.respLayer1.utilization             1.8                       # Layer utilization (%)
system.tol2bus.respLayer0.occupancy         957460307                       # Layer occupancy (ticks)
system.tol2bus.respLayer0.utilization             3.0                       # Layer utilization (%)
system.tol2bus.power_state.pwrStateResidencyTicks::UNDEFINED  31645432500                       # Cumulative time (in ticks) in various power states
system.voltage_domain.voltage                       1                       # Voltage in Volts
system.clk_domain.clock                          1000                       # Clock period in ticks
system.l2.demand_hits::.switch_cpus.inst       250967                       # number of demand (read+write) hits
system.l2.demand_hits::.switch_cpus.data       172023                       # number of demand (read+write) hits
system.l2.demand_hits::total                   422990                       # number of demand (read+write) hits
system.l2.overall_hits::.switch_cpus.inst       250967                       # number of overall hits
system.l2.overall_hits::.switch_cpus.data       172023                       # number of overall hits
system.l2.overall_hits::total                  422990                       # number of overall hits
system.l2.demand_misses::.cpu.inst                  2                       # number of demand (read+write) misses
system.l2.demand_misses::.cpu.data                  2                       # number of demand (read+write) misses
system.l2.demand_misses::.switch_cpus.inst       381003                       # number of demand (read+write) misses
system.l2.demand_misses::.switch_cpus.data       203298                       # number of demand (read+write) misses
system.l2.demand_misses::total                 584305                       # number of demand (read+write) misses
system.l2.overall_misses::.cpu.inst                 2                       # number of overall misses
system.l2.overall_misses::.cpu.data                 2                       # number of overall misses
system.l2.overall_misses::.switch_cpus.inst       381003                       # number of overall misses
system.l2.overall_misses::.switch_cpus.data       203298                       # number of overall misses
system.l2.overall_misses::total                584305                       # number of overall misses
system.l2.demand_miss_latency::.switch_cpus.inst  31799506500                       # number of demand (read+write) miss cycles
system.l2.demand_miss_latency::.switch_cpus.data  17554735000                       # number of demand (read+write) miss cycles
system.l2.demand_miss_latency::total      49354241500                       # number of demand (read+write) miss cycles
system.l2.overall_miss_latency::.switch_cpus.inst  31799506500                       # number of overall miss cycles
system.l2.overall_miss_latency::.switch_cpus.data  17554735000                       # number of overall miss cycles
system.l2.overall_miss_latency::total     49354241500                       # number of overall miss cycles
system.l2.demand_accesses::.cpu.inst                2                       # number of demand (read+write) accesses
system.l2.demand_accesses::.cpu.data                2                       # number of demand (read+write) accesses
system.l2.demand_accesses::.switch_cpus.inst       631970                       # number of demand (read+write) accesses
system.l2.demand_accesses::.switch_cpus.data       375321                       # number of demand (read+write) accesses
system.l2.demand_accesses::total              1007295                       # number of demand (read+write) accesses
system.l2.overall_accesses::.cpu.inst               2                       # number of overall (read+write) accesses
system.l2.overall_accesses::.cpu.data               2                       # number of overall (read+write) accesses
system.l2.overall_accesses::.switch_cpus.inst       631970                       # number of overall (read+write) accesses
system.l2.overall_accesses::.switch_cpus.data       375321                       # number of overall (read+write) accesses
system.l2.overall_accesses::total             1007295                       # number of overall (read+write) accesses
system.l2.demand_miss_rate::.cpu.inst               1                       # miss rate for demand accesses
system.l2.demand_miss_rate::.cpu.data               1                       # miss rate for demand accesses
system.l2.demand_miss_rate::.switch_cpus.inst     0.602881                       # miss rate for demand accesses
system.l2.demand_miss_rate::.switch_cpus.data     0.541664                       # miss rate for demand accesses
system.l2.demand_miss_rate::total            0.580073                       # miss rate for demand accesses
system.l2.overall_miss_rate::.cpu.inst              1                       # miss rate for overall accesses
system.l2.overall_miss_rate::.cpu.data              1                       # miss rate for overall accesses
system.l2.overall_miss_rate::.switch_cpus.inst     0.602881                       # miss rate for overall accesses
system.l2.overall_miss_rate::.switch_cpus.data     0.541664                       # miss rate for overall accesses
system.l2.overall_miss_rate::total           0.580073                       # miss rate for overall accesses
system.l2.demand_avg_miss_latency::.switch_cpus.inst 83462.614468                       # average overall miss latency
system.l2.demand_avg_miss_latency::.switch_cpus.data 86349.767337                       # average overall miss latency
system.l2.demand_avg_miss_latency::total 84466.573964                       # average overall miss latency
system.l2.overall_avg_miss_latency::.switch_cpus.inst 83462.614468                       # average overall miss latency
system.l2.overall_avg_miss_latency::.switch_cpus.data 86349.767337                       # average overall miss latency
system.l2.overall_avg_miss_latency::total 84466.573964                       # average overall miss latency
system.l2.blocked_cycles::no_mshrs                  0                       # number of cycles access was blocked
system.l2.blocked_cycles::no_targets                0                       # number of cycles access was blocked
system.l2.blocked::no_mshrs                         0                       # number of cycles access was blocked
system.l2.blocked::no_targets                       0                       # number of cycles access was blocked
system.l2.avg_blocked_cycles::no_mshrs            nan                       # average number of cycles each access was blocked
system.l2.avg_blocked_cycles::no_targets          nan                       # average number of cycles each access was blocked
system.l2.writebacks::.writebacks               55838                       # number of writebacks
system.l2.writebacks::total                     55838                       # number of writebacks
system.l2.demand_mshr_hits::.switch_cpus.inst          557                       # number of demand (read+write) MSHR hits
system.l2.demand_mshr_hits::.switch_cpus.data           12                       # number of demand (read+write) MSHR hits
system.l2.demand_mshr_hits::total                 569                       # number of demand (read+write) MSHR hits
system.l2.overall_mshr_hits::.switch_cpus.inst          557                       # number of overall MSHR hits
system.l2.overall_mshr_hits::.switch_cpus.data           12                       # number of overall MSHR hits
system.l2.overall_mshr_hits::total                569                       # number of overall MSHR hits
system.l2.demand_mshr_misses::.switch_cpus.inst       380446                       # number of demand (read+write) MSHR misses
system.l2.demand_mshr_misses::.switch_cpus.data       203286                       # number of demand (read+write) MSHR misses
system.l2.demand_mshr_misses::total            583732                       # number of demand (read+write) MSHR misses
system.l2.overall_mshr_misses::.switch_cpus.inst       380446                       # number of overall MSHR misses
system.l2.overall_mshr_misses::.switch_cpus.data       203286                       # number of overall MSHR misses
system.l2.overall_mshr_misses::total           583732                       # number of overall MSHR misses
system.l2.demand_mshr_miss_latency::.switch_cpus.inst  27952890012                       # number of demand (read+write) MSHR miss cycles
system.l2.demand_mshr_miss_latency::.switch_cpus.data  15521230003                       # number of demand (read+write) MSHR miss cycles
system.l2.demand_mshr_miss_latency::total  43474120015                       # number of demand (read+write) MSHR miss cycles
system.l2.overall_mshr_miss_latency::.switch_cpus.inst  27952890012                       # number of overall MSHR miss cycles
system.l2.overall_mshr_miss_latency::.switch_cpus.data  15521230003                       # number of overall MSHR miss cycles
system.l2.overall_mshr_miss_latency::total  43474120015                       # number of overall MSHR miss cycles
system.l2.demand_mshr_miss_rate::.switch_cpus.inst     0.602000                       # mshr miss rate for demand accesses
system.l2.demand_mshr_miss_rate::.switch_cpus.data     0.541632                       # mshr miss rate for demand accesses
system.l2.demand_mshr_miss_rate::total       0.579505                       # mshr miss rate for demand accesses
system.l2.overall_mshr_miss_rate::.switch_cpus.inst     0.602000                       # mshr miss rate for overall accesses
system.l2.overall_mshr_miss_rate::.switch_cpus.data     0.541632                       # mshr miss rate for overall accesses
system.l2.overall_mshr_miss_rate::total      0.579505                       # mshr miss rate for overall accesses
system.l2.demand_avg_mshr_miss_latency::.switch_cpus.inst 73474.001598                       # average overall mshr miss latency
system.l2.demand_avg_mshr_miss_latency::.switch_cpus.data 76351.691720                       # average overall mshr miss latency
system.l2.demand_avg_mshr_miss_latency::total 74476.163745                       # average overall mshr miss latency
system.l2.overall_avg_mshr_miss_latency::.switch_cpus.inst 73474.001598                       # average overall mshr miss latency
system.l2.overall_avg_mshr_miss_latency::.switch_cpus.data 76351.691720                       # average overall mshr miss latency
system.l2.overall_avg_mshr_miss_latency::total 74476.163745                       # average overall mshr miss latency
system.l2.replacements                         681949                       # number of replacements
system.l2.WritebackDirty_hits::.writebacks       118726                       # number of WritebackDirty hits
system.l2.WritebackDirty_hits::total           118726                       # number of WritebackDirty hits
system.l2.WritebackDirty_accesses::.writebacks       118726                       # number of WritebackDirty accesses(hits+misses)
system.l2.WritebackDirty_accesses::total       118726                       # number of WritebackDirty accesses(hits+misses)
system.l2.WritebackClean_hits::.writebacks       628551                       # number of WritebackClean hits
system.l2.WritebackClean_hits::total           628551                       # number of WritebackClean hits
system.l2.WritebackClean_accesses::.writebacks       628551                       # number of WritebackClean accesses(hits+misses)
system.l2.WritebackClean_accesses::total       628551                       # number of WritebackClean accesses(hits+misses)
system.l2.CleanEvict_mshr_misses::.writebacks        61406                       # number of CleanEvict MSHR misses
system.l2.CleanEvict_mshr_misses::total         61406                       # number of CleanEvict MSHR misses
system.l2.CleanEvict_mshr_miss_rate::.writebacks          inf                       # mshr miss rate for CleanEvict accesses
system.l2.CleanEvict_mshr_miss_rate::total          inf                       # mshr miss rate for CleanEvict accesses
system.l2.UpgradeReq_hits::.switch_cpus.data         3277                       # number of UpgradeReq hits
system.l2.UpgradeReq_hits::total                 3277                       # number of UpgradeReq hits
system.l2.UpgradeReq_misses::.switch_cpus.data         2641                       # number of UpgradeReq misses
system.l2.UpgradeReq_misses::total               2641                       # number of UpgradeReq misses
system.l2.UpgradeReq_miss_latency::.switch_cpus.data     12556000                       # number of UpgradeReq miss cycles
system.l2.UpgradeReq_miss_latency::total     12556000                       # number of UpgradeReq miss cycles
system.l2.UpgradeReq_accesses::.switch_cpus.data         5918                       # number of UpgradeReq accesses(hits+misses)
system.l2.UpgradeReq_accesses::total             5918                       # number of UpgradeReq accesses(hits+misses)
system.l2.UpgradeReq_miss_rate::.switch_cpus.data     0.446266                       # miss rate for UpgradeReq accesses
system.l2.UpgradeReq_miss_rate::total        0.446266                       # miss rate for UpgradeReq accesses
system.l2.UpgradeReq_avg_miss_latency::.switch_cpus.data  4754.259750                       # average UpgradeReq miss latency
system.l2.UpgradeReq_avg_miss_latency::total  4754.259750                       # average UpgradeReq miss latency
system.l2.UpgradeReq_mshr_misses::.switch_cpus.data         2641                       # number of UpgradeReq MSHR misses
system.l2.UpgradeReq_mshr_misses::total          2641                       # number of UpgradeReq MSHR misses
system.l2.UpgradeReq_mshr_miss_latency::.switch_cpus.data     52323500                       # number of UpgradeReq MSHR miss cycles
system.l2.UpgradeReq_mshr_miss_latency::total     52323500                       # number of UpgradeReq MSHR miss cycles
system.l2.UpgradeReq_mshr_miss_rate::.switch_cpus.data     0.446266                       # mshr miss rate for UpgradeReq accesses
system.l2.UpgradeReq_mshr_miss_rate::total     0.446266                       # mshr miss rate for UpgradeReq accesses
system.l2.UpgradeReq_avg_mshr_miss_latency::.switch_cpus.data 19812.003029                       # average UpgradeReq mshr miss latency
system.l2.UpgradeReq_avg_mshr_miss_latency::total 19812.003029                       # average UpgradeReq mshr miss latency
system.l2.ReadExReq_hits::.switch_cpus.data        25022                       # number of ReadExReq hits
system.l2.ReadExReq_hits::total                 25022                       # number of ReadExReq hits
[...]
system.cpu.itb_walker_cache.blocked_cycles::no_mshrs            0                       # number of cycles access was blocked
system.cpu.itb_walker_cache.blocked_cycles::no_targets            0                       # number of cycles access was blocked
system.cpu.itb_walker_cache.blocked::no_mshrs            0                       # number of cycles access was blocked
system.cpu.itb_walker_cache.blocked::no_targets            0                       # number of cycles access was blocked
system.cpu.itb_walker_cache.avg_blocked_cycles::no_mshrs          nan                       # average number of cycles each access was blocked
system.cpu.itb_walker_cache.avg_blocked_cycles::no_targets          nan                       # average number of cycles each access was blocked
system.cpu.itb_walker_cache.replacements            0                       # number of replacements
system.cpu.itb_walker_cache.power_state.pwrStateResidencyTicks::UNDEFINED  34186330500                       # Cumulative time (in ticks) in various power states
system.cpu.itb_walker_cache.tags.tagsinuse            0                       # Cycle average of tags in use
system.cpu.itb_walker_cache.tags.total_refs            0                       # Total number of references to valid blocks.
system.cpu.itb_walker_cache.tags.sampled_refs            0                       # Sample count of references to valid blocks.
system.cpu.itb_walker_cache.tags.avg_refs          nan                       # Average number of references to valid blocks.
system.cpu.itb_walker_cache.tags.warmup_cycle            0                       # Cycle when the warmup percentage was hit.
system.cpu.itb_walker_cache.tags.tag_accesses            0                       # Number of tag accesses
system.cpu.itb_walker_cache.tags.data_accesses            0                       # Number of data accesses
system.cpu.itb_walker_cache.tags.power_state.pwrStateResidencyTicks::UNDEFINED  34186330500                       # Cumulative time (in ticks) in various power states
system.cpu.itb.walker.power_state.pwrStateResidencyTicks::UNDEFINED  34186330500                       # Cumulative time (in ticks) in various power states
system.cpu.dtb_walker_cache.blocked_cycles::no_mshrs            0                       # number of cycles access was blocked
system.cpu.dtb_walker_cache.blocked_cycles::no_targets            0                       # number of cycles access was blocked
system.cpu.dtb_walker_cache.blocked::no_mshrs            0                       # number of cycles access was blocked
system.cpu.dtb_walker_cache.blocked::no_targets            0                       # number of cycles access was blocked
system.cpu.dtb_walker_cache.avg_blocked_cycles::no_mshrs          nan                       # average number of cycles each access was blocked
system.cpu.dtb_walker_cache.avg_blocked_cycles::no_targets          nan                       # average number of cycles each access was blocked
system.cpu.dtb_walker_cache.replacements            0                       # number of replacements
system.cpu.dtb_walker_cache.power_state.pwrStateResidencyTicks::UNDEFINED  34186330500                       # Cumulative time (in ticks) in various power states
system.cpu.dtb_walker_cache.tags.tagsinuse            0                       # Cycle average of tags in use
system.cpu.dtb_walker_cache.tags.total_refs            0                       # Total number of references to valid blocks.
system.cpu.dtb_walker_cache.tags.sampled_refs            0                       # Sample count of references to valid blocks.
system.cpu.dtb_walker_cache.tags.avg_refs          nan                       # Average number of references to valid blocks.
system.cpu.dtb_walker_cache.tags.warmup_cycle            0                       # Cycle when the warmup percentage was hit.
system.cpu.dtb_walker_cache.tags.tag_accesses            0                       # Number of tag accesses
system.cpu.dtb_walker_cache.tags.data_accesses            0                       # Number of data accesses
system.cpu.dtb_walker_cache.tags.power_state.pwrStateResidencyTicks::UNDEFINED  34186330500                       # Cumulative time (in ticks) in various power states
system.cpu.dcache.demand_hits::.cpu.data            5                       # number of demand (read+write) hits
system.cpu.dcache.demand_hits::.switch_cpus.data      4861750                       # number of demand (read+write) hits
system.cpu.dcache.demand_hits::total          4861755                       # number of demand (read+write) hits
system.cpu.dcache.overall_hits::.cpu.data            5                       # number of overall hits
system.cpu.dcache.overall_hits::.switch_cpus.data      4861750                       # number of overall hits
system.cpu.dcache.overall_hits::total         4861755                       # number of overall hits
system.cpu.dcache.demand_misses::.cpu.data            2                       # number of demand (read+write) misses
system.cpu.dcache.demand_misses::.switch_cpus.data       718157                       # number of demand (read+write) misses
system.cpu.dcache.demand_misses::total         718159                       # number of demand (read+write) misses
system.cpu.dcache.overall_misses::.cpu.data            2                       # number of overall misses
system.cpu.dcache.overall_misses::.switch_cpus.data       718157                       # number of overall misses
system.cpu.dcache.overall_misses::total        718159                       # number of overall misses
system.cpu.dcache.demand_miss_latency::.switch_cpus.data  36874637882                       # number of demand (read+write) miss cycles
system.cpu.dcache.demand_miss_latency::total  36874637882                       # number of demand (read+write) miss cycles
system.cpu.dcache.overall_miss_latency::.switch_cpus.data  36874637882                       # number of overall miss cycles
system.cpu.dcache.overall_miss_latency::total  36874637882                       # number of overall miss cycles
system.cpu.dcache.demand_accesses::.cpu.data            7                       # number of demand (read+write) accesses
system.cpu.dcache.demand_accesses::.switch_cpus.data      5579907                       # number of demand (read+write) accesses
system.cpu.dcache.demand_accesses::total      5579914                       # number of demand (read+write) accesses
system.cpu.dcache.overall_accesses::.cpu.data            7                       # number of overall (read+write) accesses
system.cpu.dcache.overall_accesses::.switch_cpus.data      5579907                       # number of overall (read+write) accesses
system.cpu.dcache.overall_accesses::total      5579914                       # number of overall (read+write) accesses
system.cpu.dcache.demand_miss_rate::.cpu.data     0.285714                       # miss rate for demand accesses
system.cpu.dcache.demand_miss_rate::.switch_cpus.data     0.128704                       # miss rate for demand accesses
system.cpu.dcache.demand_miss_rate::total     0.128704                       # miss rate for demand accesses
system.cpu.dcache.overall_miss_rate::.cpu.data     0.285714                       # miss rate for overall accesses
system.cpu.dcache.overall_miss_rate::.switch_cpus.data     0.128704                       # miss rate for overall accesses
system.cpu.dcache.overall_miss_rate::total     0.128704                       # miss rate for overall accesses
system.cpu.dcache.demand_avg_miss_latency::.switch_cpus.data 51346.206863                       # average overall miss latency
system.cpu.dcache.demand_avg_miss_latency::total 51346.063869                       # average overall miss latency
system.cpu.dcache.overall_avg_miss_latency::.switch_cpus.data 51346.206863                       # average overall miss latency
system.cpu.dcache.overall_avg_miss_latency::total 51346.063869                       # average overall miss latency
system.cpu.dcache.blocked_cycles::no_mshrs       600983                       # number of cycles access was blocked
system.cpu.dcache.blocked_cycles::no_targets       196723                       # number of cycles access was blocked
system.cpu.dcache.blocked::no_mshrs             19480                       # number of cycles access was blocked
system.cpu.dcache.blocked::no_targets            1498                       # number of cycles access was blocked
system.cpu.dcache.avg_blocked_cycles::no_mshrs    30.851283                       # average number of cycles each access was blocked
system.cpu.dcache.avg_blocked_cycles::no_targets   131.323765                       # average number of cycles each access was blocked
system.cpu.dcache.writebacks::.writebacks       126119                       # number of writebacks
system.cpu.dcache.writebacks::total            126119                       # number of writebacks
system.cpu.dcache.demand_mshr_hits::.switch_cpus.data       298433                       # number of demand (read+write) MSHR hits
system.cpu.dcache.demand_mshr_hits::total       298433                       # number of demand (read+write) MSHR hits
system.cpu.dcache.overall_mshr_hits::.switch_cpus.data       298433                       # number of overall MSHR hits
system.cpu.dcache.overall_mshr_hits::total       298433                       # number of overall MSHR hits
system.cpu.dcache.demand_mshr_misses::.switch_cpus.data       419724                       # number of demand (read+write) MSHR misses
system.cpu.dcache.demand_mshr_misses::total       419724                       # number of demand (read+write) MSHR misses
system.cpu.dcache.overall_mshr_misses::.switch_cpus.data       419724                       # number of overall MSHR misses
system.cpu.dcache.overall_mshr_misses::total       419724                       # number of overall MSHR misses
system.cpu.dcache.demand_mshr_miss_latency::.switch_cpus.data  22153630389                       # number of demand (read+write) MSHR miss cycles
system.cpu.dcache.demand_mshr_miss_latency::total  22153630389                       # number of demand (read+write) MSHR miss cycles
system.cpu.dcache.overall_mshr_miss_latency::.switch_cpus.data  22153630389                       # number of overall MSHR miss cycles
system.cpu.dcache.overall_mshr_miss_latency::total  22153630389                       # number of overall MSHR miss cycles
system.cpu.dcache.demand_mshr_miss_rate::.switch_cpus.data     0.075221                       # mshr miss rate for demand accesses
system.cpu.dcache.demand_mshr_miss_rate::total     0.075221                       # mshr miss rate for demand accesses
system.cpu.dcache.overall_mshr_miss_rate::.switch_cpus.data     0.075221                       # mshr miss rate for overall accesses
system.cpu.dcache.overall_mshr_miss_rate::total     0.075221                       # mshr miss rate for overall accesses
system.cpu.dcache.demand_avg_mshr_miss_latency::.switch_cpus.data 52781.423957                       # average overall mshr miss latency
system.cpu.dcache.demand_avg_mshr_miss_latency::total 52781.423957                       # average overall mshr miss latency
system.cpu.dcache.overall_avg_mshr_miss_latency::.switch_cpus.data 52781.423957                       # average overall mshr miss latency
system.cpu.dcache.overall_avg_mshr_miss_latency::total 52781.423957                       # average overall mshr miss latency
system.cpu.dcache.replacements                 413497                       # number of replacements
system.cpu.dcache.ReadReq_hits::.switch_cpus.data      3512509                       # number of ReadReq hits
system.cpu.dcache.ReadReq_hits::total         3512509                       # number of ReadReq hits
system.cpu.dcache.ReadReq_misses::.switch_cpus.data       649163                       # number of ReadReq misses
system.cpu.dcache.ReadReq_misses::total        649163                       # number of ReadReq misses
system.cpu.dcache.ReadReq_miss_latency::.switch_cpus.data  33521003000                       # number of ReadReq miss cycles
system.cpu.dcache.ReadReq_miss_latency::total  33521003000                       # number of ReadReq miss cycles
system.cpu.dcache.ReadReq_accesses::.switch_cpus.data      4161672                       # number of ReadReq accesses(hits+misses)
system.cpu.dcache.ReadReq_accesses::total      4161672                       # number of ReadReq accesses(hits+misses)
system.cpu.dcache.ReadReq_miss_rate::.switch_cpus.data     0.155986                       # miss rate for ReadReq accesses
system.cpu.dcache.ReadReq_miss_rate::total     0.155986                       # miss rate for ReadReq accesses
system.cpu.dcache.ReadReq_avg_miss_latency::.switch_cpus.data 51637.266757                       # average ReadReq miss latency
system.cpu.dcache.ReadReq_avg_miss_latency::total 51637.266757                       # average ReadReq miss latency
system.cpu.dcache.ReadReq_mshr_hits::.switch_cpus.data       297921                       # number of ReadReq MSHR hits
system.cpu.dcache.ReadReq_mshr_hits::total       297921                       # number of ReadReq MSHR hits
system.cpu.dcache.ReadReq_mshr_misses::.switch_cpus.data       351242                       # number of ReadReq MSHR misses
system.cpu.dcache.ReadReq_mshr_misses::total       351242                       # number of ReadReq MSHR misses
system.cpu.dcache.ReadReq_mshr_miss_latency::.switch_cpus.data  18881370500                       # number of ReadReq MSHR miss cycles
system.cpu.dcache.ReadReq_mshr_miss_latency::total  18881370500                       # number of ReadReq MSHR miss cycles
system.cpu.dcache.ReadReq_mshr_miss_rate::.switch_cpus.data     0.084399                       # mshr miss rate for ReadReq accesses
system.cpu.dcache.ReadReq_mshr_miss_rate::total     0.084399                       # mshr miss rate for ReadReq accesses
system.cpu.dcache.ReadReq_avg_mshr_miss_latency::.switch_cpus.data 53756.015795                       # average ReadReq mshr miss latency
system.cpu.dcache.ReadReq_avg_mshr_miss_latency::total 53756.015795                       # average ReadReq mshr miss latency
system.cpu.dcache.WriteReq_hits::.cpu.data            5                       # number of WriteReq hits
system.cpu.dcache.WriteReq_hits::.switch_cpus.data      1349241                       # number of WriteReq hits
system.cpu.dcache.WriteReq_hits::total        1349246                       # number of WriteReq hits
system.cpu.dcache.WriteReq_misses::.cpu.data            2                       # number of WriteReq misses
system.cpu.dcache.WriteReq_misses::.switch_cpus.data        68994                       # number of WriteReq misses
system.cpu.dcache.WriteReq_misses::total        68996                       # number of WriteReq misses
system.cpu.dcache.WriteReq_miss_latency::.switch_cpus.data   3353634882                       # number of WriteReq miss cycles
system.cpu.dcache.WriteReq_miss_latency::total   3353634882                       # number of WriteReq miss cycles
system.cpu.dcache.WriteReq_accesses::.cpu.data            7                       # number of WriteReq accesses(hits+misses)
system.cpu.dcache.WriteReq_accesses::.switch_cpus.data      1418235                       # number of WriteReq accesses(hits+misses)
system.cpu.dcache.WriteReq_accesses::total      1418242                       # number of WriteReq accesses(hits+misses)
system.cpu.dcache.WriteReq_miss_rate::.cpu.data     0.285714                       # miss rate for WriteReq accesses
system.cpu.dcache.WriteReq_miss_rate::.switch_cpus.data     0.048648                       # miss rate for WriteReq accesses
system.cpu.dcache.WriteReq_miss_rate::total     0.048649                       # miss rate for WriteReq accesses
system.cpu.dcache.WriteReq_avg_miss_latency::.switch_cpus.data 48607.630837                       # average WriteReq miss latency
system.cpu.dcache.WriteReq_avg_miss_latency::total 48606.221839                       # average WriteReq miss latency
system.cpu.dcache.WriteReq_mshr_hits::.switch_cpus.data          512                       # number of WriteReq MSHR hits
system.cpu.dcache.WriteReq_mshr_hits::total          512                       # number of WriteReq MSHR hits
system.cpu.dcache.WriteReq_mshr_misses::.switch_cpus.data        68482                       # number of WriteReq MSHR misses
system.cpu.dcache.WriteReq_mshr_misses::total        68482                       # number of WriteReq MSHR misses
system.cpu.dcache.WriteReq_mshr_miss_latency::.switch_cpus.data   3272259889                       # number of WriteReq MSHR miss cycles
system.cpu.dcache.WriteReq_mshr_miss_latency::total   3272259889                       # number of WriteReq MSHR miss cycles
system.cpu.dcache.WriteReq_mshr_miss_rate::.switch_cpus.data     0.048287                       # mshr miss rate for WriteReq accesses
system.cpu.dcache.WriteReq_mshr_miss_rate::total     0.048287                       # mshr miss rate for WriteReq accesses
system.cpu.dcache.WriteReq_avg_mshr_miss_latency::.switch_cpus.data 47782.773415                       # average WriteReq mshr miss latency
system.cpu.dcache.WriteReq_avg_mshr_miss_latency::total 47782.773415                       # average WriteReq mshr miss latency
system.cpu.dcache.power_state.pwrStateResidencyTicks::UNDEFINED  34186330500                       # Cumulative time (in ticks) in various power states
system.cpu.dcache.tags.tagsinuse            63.995419                       # Cycle average of tags in use
system.cpu.dcache.tags.total_refs             5284466                       # Total number of references to valid blocks.
system.cpu.dcache.tags.sampled_refs            413561                       # Sample count of references to valid blocks.
system.cpu.dcache.tags.avg_refs             12.777960                       # Average number of references to valid blocks.
system.cpu.dcache.tags.warmup_cycle              1500                       # Cycle when the warmup percentage was hit.
system.cpu.dcache.tags.occ_blocks::.cpu.data     0.000395                       # Average occupied blocks per requestor
system.cpu.dcache.tags.occ_blocks::.switch_cpus.data    63.995024                       # Average occupied blocks per requestor
system.cpu.dcache.tags.occ_percent::.cpu.data     0.000006                       # Average percentage of cache occupancy
system.cpu.dcache.tags.occ_percent::.switch_cpus.data     0.999922                       # Average percentage of cache occupancy
system.cpu.dcache.tags.occ_percent::total     0.999928                       # Average percentage of cache occupancy
system.cpu.dcache.tags.occ_task_id_blocks::1024           64                       # Occupied blocks per task id
system.cpu.dcache.tags.age_task_id_blocks_1024::0           49                       # Occupied blocks per task id
system.cpu.dcache.tags.age_task_id_blocks_1024::1           15                       # Occupied blocks per task id
system.cpu.dcache.tags.occ_task_id_percent::1024            1                       # Percentage of cache occupancy per task id
system.cpu.dcache.tags.tag_accesses          11573389                       # Number of tag accesses
system.cpu.dcache.tags.data_accesses         11573389                       # Number of data accesses
system.cpu.dcache.tags.power_state.pwrStateResidencyTicks::UNDEFINED  34186330500                       # Cumulative time (in ticks) in various power states
system.cpu.power_state.numTransitions               1                       # Number of power state transitions
system.cpu.power_state.pwrStateResidencyTicks::ON        10500                       # Cumulative time (in ticks) in various power states
system.cpu.power_state.pwrStateResidencyTicks::OFF  34186320000                       # Cumulative time (in ticks) in various power states

---------- End Simulation Statistics   ----------
