
---------- Begin Simulation Statistics ----------
final_tick                                48124731500                       # Number of ticks from beginning of simulation (restored from checkpoints and never reset)
host_inst_rate                                  47494                       # Simulator instruction rate (inst/s)
host_mem_usage                                 965508                       # Number of bytes of host memory used
host_op_rate                                    94599                       # Simulator op (including micro ops) rate (op/s)
host_seconds                                   210.55                       # Real time elapsed on the host
host_tick_rate                              228562357                       # Simulator tick rate (ticks/s)
sim_freq                                 1000000000000                       # Frequency of simulated ticks
sim_insts                                    10000010                       # Number of instructions simulated
sim_ops                                      19918153                       # Number of ops (including micro ops) simulated
sim_seconds                                  0.048125                       # Number of seconds simulated
sim_ticks                                 48124731500                       # Number of ticks simulated
system.cpu.Branches                                 1                       # Number of branches fetched
system.cpu.committedInsts                          10                       # Number of instructions committed
system.cpu.committedOps                            21                       # Number of ops (including micro ops) committed
system.cpu.dtb.rdAccesses                           0                       # TLB accesses on read requests
system.cpu.dtb.rdMisses                             0                       # TLB misses on read requests
system.cpu.dtb.wrAccesses                           7                       # TLB accesses on write requests
system.cpu.dtb.wrMisses                             1                       # TLB misses on write requests
system.cpu.idle_fraction                            0                       # Percentage of idle cycles
system.cpu.itb.rdAccesses                           0                       # TLB accesses on read requests
system.cpu.itb.rdMisses                             0                       # TLB misses on read requests
system.cpu.itb.wrAccesses                          10                       # TLB accesses on write requests
system.cpu.itb.wrMisses                             0                       # TLB misses on write requests
system.cpu.not_idle_fraction                        1                       # Percentage of non-idle cycles
system.cpu.numCycles                               21                       # number of cpu cycles simulated
system.cpu.numWorkItemsCompleted                    0                       # number of work items this cpu completed
system.cpu.numWorkItemsStarted                      0                       # number of work items this cpu started
system.cpu.num_busy_cycles                         21                       # Number of busy cycles
system.cpu.num_cc_register_writes                   2                       # number of times the CC registers were written
system.cpu.num_conditional_control_insts            0                       # number of instructions that are conditional controls
system.cpu.num_fp_alu_accesses                      0                       # Number of float alu accesses
system.cpu.num_fp_insts                             0                       # number of float instructions
system.cpu.num_fp_register_reads                    0                       # number of times the floating registers were read
system.cpu.num_fp_register_writes                   0                       # number of times the floating registers were written
system.cpu.num_func_calls                           1                       # number of times a function call or return occured
system.cpu.num_idle_cycles                          0                       # Number of idle cycles
system.cpu.num_int_alu_accesses                    21                       # Number of integer alu accesses
system.cpu.num_int_insts                           21                       # number of integer instructions
system.cpu.num_int_register_reads                  47                       # number of times the integer registers were read
system.cpu.num_int_register_writes                 13                       # number of times the integer registers were written
system.cpu.num_load_insts                           0                       # Number of load instructions
system.cpu.num_mem_refs                             7                       # number of memory refs
system.cpu.num_store_insts                          7                       # Number of store instructions
system.cpu.num_vec_alu_accesses                     0                       # Number of vector alu accesses
system.cpu.num_vec_insts                            0                       # number of vector instructions
system.cpu.num_vec_register_reads                   0                       # number of times the vector registers were read
system.cpu.num_vec_register_writes                  0                       # number of times the vector registers were written
system.cpu.op_class::No_OpClass                     0      0.00%      0.00% # Class of executed instruction
system.cpu.op_class::IntAlu                        14     66.67%     66.67% # Class of executed instruction
system.cpu.op_class::IntMult                        0      0.00%     66.67% # Class of executed instruction
system.cpu.op_class::IntDiv                         0      0.00%     66.67% # Class of executed instruction
system.cpu.op_class::FloatAdd                       0      0.00%     66.67% # Class of executed instruction
system.cpu.op_class::FloatCmp                       0      0.00%     66.67% # Class of executed instruction
system.cpu.op_class::FloatCvt                       0      0.00%     66.67% # Class of executed instruction
system.cpu.op_class::FloatMult                      0      0.00%     66.67% # Class of executed instruction
system.cpu.op_class::FloatMultAcc                   0      0.00%     66.67% # Class of executed instruction
system.cpu.op_class::FloatDiv                       0      0.00%     66.67% # Class of executed instruction
system.cpu.op_class::FloatMisc                      0      0.00%     66.67% # Class of executed instruction
system.cpu.op_class::FloatSqrt                      0      0.00%     66.67% # Class of executed instruction
system.cpu.op_class::SimdAdd                        0      0.00%     66.67% # Class of executed instruction
system.cpu.op_class::SimdAddAcc                     0      0.00%     66.67% # Class of executed instruction
system.cpu.op_class::SimdAlu                        0      0.00%     66.67% # Class of executed instruction
system.cpu.op_class::SimdCmp                        0      0.00%     66.67% # Class of executed instruction
system.cpu.op_class::SimdCvt                        0      0.00%     66.67% # Class of executed instruction
system.cpu.op_class::SimdMisc                       0      0.00%     66.67% # Class of executed instruction
system.cpu.op_class::SimdMult                       0      0.00%     66.67% # Class of executed instruction
system.cpu.op_class::SimdMultAcc                    0      0.00%     66.67% # Class of executed instruction
system.cpu.op_class::SimdShift                      0      0.00%     66.67% # Class of executed instruction
system.cpu.op_class::SimdShiftAcc                   0      0.00%     66.67% # Class of executed instruction
system.cpu.op_class::SimdDiv                        0      0.00%     66.67% # Class of executed instruction
system.cpu.op_class::SimdSqrt                       0      0.00%     66.67% # Class of executed instruction
system.cpu.op_class::SimdFloatAdd                   0      0.00%     66.67% # Class of executed instruction
system.cpu.op_class::SimdFloatAlu                   0      0.00%     66.67% # Class of executed instruction
system.cpu.op_class::SimdFloatCmp                   0      0.00%     66.67% # Class of executed instruction
system.cpu.op_class::SimdFloatCvt                   0      0.00%     66.67% # Class of executed instruction
system.cpu.op_class::SimdFloatDiv                   0      0.00%     66.67% # Class of executed instruction
system.cpu.op_class::SimdFloatMisc                  0      0.00%     66.67% # Class of executed instruction
system.cpu.op_class::SimdFloatMult                  0      0.00%     66.67% # Class of executed instruction
system.cpu.op_class::SimdFloatMultAcc               0      0.00%     66.67% # Class of executed instruction
system.cpu.op_class::SimdFloatSqrt                  0      0.00%     66.67% # Class of executed instruction
system.cpu.op_class::SimdReduceAdd                  0      0.00%     66.67% # Class of executed instruction
system.cpu.op_class::SimdReduceAlu                  0      0.00%     66.67% # Class of executed instruction
system.cpu.op_class::SimdReduceCmp                  0      0.00%     66.67% # Class of executed instruction
system.cpu.op_class::SimdFloatReduceAdd             0      0.00%     66.67% # Class of executed instruction
system.cpu.op_class::SimdFloatReduceCmp             0      0.00%     66.67% # Class of executed instruction
system.cpu.op_class::SimdAes                        0      0.00%     66.67% # Class of executed instruction
system.cpu.op_class::SimdAesMix                     0      0.00%     66.67% # Class of executed instruction
system.cpu.op_class::SimdSha1Hash                   0      0.00%     66.67% # Class of executed instruction
system.cpu.op_class::SimdSha1Hash2                  0      0.00%     66.67% # Class of executed instruction
system.cpu.op_class::SimdSha256Hash                 0      0.00%     66.67% # Class of executed instruction
system.cpu.op_class::SimdSha256Hash2                0      0.00%     66.67% # Class of executed instruction
system.cpu.op_class::SimdShaSigma2                  0      0.00%     66.67% # Class of executed instruction
system.cpu.op_class::SimdShaSigma3                  0      0.00%     66.67% # Class of executed instruction
system.cpu.op_class::SimdPredAlu                    0      0.00%     66.67% # Class of executed instruction
system.cpu.op_class::MemRead                        0      0.00%     66.67% # Class of executed instruction
system.cpu.op_class::MemWrite                       7     33.33%    100.00% # Class of executed instruction
system.cpu.op_class::FloatMemRead                   0      0.00%    100.00% # Class of executed instruction
system.cpu.op_class::FloatMemWrite                  0      0.00%    100.00% # Class of executed instruction
system.cpu.op_class::IprAccess                      0      0.00%    100.00% # Class of executed instruction
system.cpu.op_class::InstPrefetch                   0      0.00%    100.00% # Class of executed instruction
system.cpu.op_class::total                         21                       # Class of executed instruction
system.cpu.workload.numSyscalls                   156                       # Number of system calls
system.membus.snoop_filter.hit_multi_requests            0                       # Number of requests hitting in the snoop filter with multiple (>1) holders of the requested data.
system.membus.snoop_filter.hit_multi_snoops            0                       # Number of snoops hitting in the snoop filter with multiple (>1) holders of the requested data.
system.membus.snoop_filter.hit_single_requests      1007706                       # Number of requests hitting in the snoop filter with a single holder of the requested data.
system.membus.snoop_filter.hit_single_snoops            0                       # Number of snoops hitting in the snoop filter with a single holder of the requested data.
system.membus.snoop_filter.tot_requests       2015591                       # Total number of requests made to the snoop filter.
system.membus.snoop_filter.tot_snoops               0                       # Total number of snoops made to the snoop filter.
system.switch_cpus.branchPred.BTBCorrect            0                       # Number of correct BTB predictions (this stat may not work properly.
system.switch_cpus.branchPred.BTBHitPct           nan                       # BTB Hit Percentage
system.switch_cpus.branchPred.BTBHits               0                       # Number of BTB hits
system.switch_cpus.branchPred.BTBLookups            0                       # Number of BTB lookups
system.switch_cpus.branchPred.RASInCorrect         2106                       # Number of incorrect RAS predictions.
system.switch_cpus.branchPred.condIncorrect       943093                       # Number of conditional branches incorrect
system.switch_cpus.branchPred.condPredicted      5560887                       # Number of conditional branches predicted
system.switch_cpus.branchPred.indirectHits       696809                       # Number of indirect target hits.
system.switch_cpus.branchPred.indirectLookups      3430792                       # Number of indirect predictor lookups.
system.switch_cpus.branchPred.indirectMisses      2733983                       # Number of indirect misses.
system.switch_cpus.branchPred.lookups         6626112                       # Number of BP lookups
system.switch_cpus.branchPred.usedRAS          417159                       # Number of times the RAS was used to get a target.
system.switch_cpus.branchPredindirectMispredicted       721745                       # Number of mispredicted indirect branches.
system.switch_cpus.cc_regfile_reads          14777569                       # number of cc regfile reads
system.switch_cpus.cc_regfile_writes          8652094                       # number of cc regfile writes
system.switch_cpus.commit.amos                      0                       # Number of atomic instructions committed
system.switch_cpus.commit.branchMispredicts      1053890                       # The number of times a branch was mispredicted
system.switch_cpus.commit.branches            2371468                       # Number of branches committed
system.switch_cpus.commit.bw_lim_events        917637                       # number cycles where commit BW limit reached
system.switch_cpus.commit.commitNonSpecStalls         1911                       # The number of times commit has been forced to stall to communicate backwards
system.switch_cpus.commit.commitSquashedInsts     22750708                       # The number of squashed insts skipped by commit
system.switch_cpus.commit.committedInsts     10000000                       # Number of instructions committed
system.switch_cpus.commit.committedOps       19918132                       # Number of ops (including micro ops) committed
system.switch_cpus.commit.committed_per_cycle::samples     39397996                       # Number of insts commited each cycle
system.switch_cpus.commit.committed_per_cycle::mean     0.505562                       # Number of insts commited each cycle
system.switch_cpus.commit.committed_per_cycle::stdev     1.543846                       # Number of insts commited each cycle
system.switch_cpus.commit.committed_per_cycle::underflows            0      0.00%      0.00% # Number of insts commited each cycle
system.switch_cpus.commit.committed_per_cycle::0     33642586     85.39%     85.39% # Number of insts commited each cycle
system.switch_cpus.commit.committed_per_cycle::1      1633589      4.15%     89.54% # Number of insts commited each cycle
system.switch_cpus.commit.committed_per_cycle::2       947400      2.40%     91.94% # Number of insts commited each cycle
system.switch_cpus.commit.committed_per_cycle::3      1093405      2.78%     94.72% # Number of insts commited each cycle
system.switch_cpus.commit.committed_per_cycle::4       555062      1.41%     96.13% # Number of insts commited each cycle
system.switch_cpus.commit.committed_per_cycle::5       261392      0.66%     96.79% # Number of insts commited each cycle
system.switch_cpus.commit.committed_per_cycle::6       187251      0.48%     97.27% # Number of insts commited each cycle
system.switch_cpus.commit.committed_per_cycle::7       159674      0.41%     97.67% # Number of insts commited each cycle
system.switch_cpus.commit.committed_per_cycle::8       917637      2.33%    100.00% # Number of insts commited each cycle
system.switch_cpus.commit.committed_per_cycle::overflows            0      0.00%    100.00% # Number of insts commited each cycle
system.switch_cpus.commit.committed_per_cycle::min_value            0                       # Number of insts commited each cycle
system.switch_cpus.commit.committed_per_cycle::max_value            8                       # Number of insts commited each cycle
system.switch_cpus.commit.committed_per_cycle::total     39397996                       # Number of insts commited each cycle
system.switch_cpus.commit.fp_insts             201513                       # Number of committed floating point instructions.
system.switch_cpus.commit.function_calls       162933                       # Number of function calls committed.
system.switch_cpus.commit.int_insts          19687048                       # Number of committed integer instructions.
system.switch_cpus.commit.loads               2387785                       # Number of loads committed
system.switch_cpus.commit.membars                 980                       # Number of memory barriers committed
system.switch_cpus.commit.op_class_0::No_OpClass       103630      0.52%      0.52% # Class of committed instruction
system.switch_cpus.commit.op_class_0::IntAlu     15775395     79.20%     79.72% # Class of committed instruction
system.switch_cpus.commit.op_class_0::IntMult          311      0.00%     79.72% # Class of committed instruction
system.switch_cpus.commit.op_class_0::IntDiv         2239      0.01%     79.73% # Class of committed instruction
system.switch_cpus.commit.op_class_0::FloatAdd         8689      0.04%     79.78% # Class of committed instruction
system.switch_cpus.commit.op_class_0::FloatCmp            0      0.00%     79.78% # Class of committed instruction
system.switch_cpus.commit.op_class_0::FloatCvt          498      0.00%     79.78% # Class of committed instruction
system.switch_cpus.commit.op_class_0::FloatMult            0      0.00%     79.78% # Class of committed instruction
system.switch_cpus.commit.op_class_0::FloatMultAcc            0      0.00%     79.78% # Class of committed instruction
system.switch_cpus.commit.op_class_0::FloatDiv            0      0.00%     79.78% # Class of committed instruction
system.switch_cpus.commit.op_class_0::FloatMisc            0      0.00%     79.78% # Class of committed instruction
system.switch_cpus.commit.op_class_0::FloatSqrt            0      0.00%     79.78% # Class of committed instruction
system.switch_cpus.commit.op_class_0::SimdAdd         3932      0.02%     79.80% # Class of committed instruction
system.switch_cpus.commit.op_class_0::SimdAddAcc            0      0.00%     79.80% # Class of committed instruction
system.switch_cpus.commit.op_class_0::SimdAlu        26614      0.13%     79.93% # Class of committed instruction
system.switch_cpus.commit.op_class_0::SimdCmp            0      0.00%     79.93% # Class of committed instruction
system.switch_cpus.commit.op_class_0::SimdCvt        34946      0.18%     80.11% # Class of committed instruction
system.switch_cpus.commit.op_class_0::SimdMisc        67097      0.34%     80.45% # Class of committed instruction
system.switch_cpus.commit.op_class_0::SimdMult            0      0.00%     80.45% # Class of committed instruction
system.switch_cpus.commit.op_class_0::SimdMultAcc            0      0.00%     80.45% # Class of committed instruction
system.switch_cpus.commit.op_class_0::SimdShift            0      0.00%     80.45% # Class of committed instruction
system.switch_cpus.commit.op_class_0::SimdShiftAcc            0      0.00%     80.45% # Class of committed instruction
system.switch_cpus.commit.op_class_0::SimdDiv            0      0.00%     80.45% # Class of committed instruction
system.switch_cpus.commit.op_class_0::SimdSqrt            0      0.00%     80.45% # Class of committed instruction
system.switch_cpus.commit.op_class_0::SimdFloatAdd           10      0.00%     80.45% # Class of committed instruction
system.switch_cpus.commit.op_class_0::SimdFloatAlu            0      0.00%     80.45% # Class of committed instruction
system.switch_cpus.commit.op_class_0::SimdFloatCmp            0      0.00%     80.45% # Class of committed instruction
system.switch_cpus.commit.op_class_0::SimdFloatCvt         1062      0.01%     80.45% # Class of committed instruction
system.switch_cpus.commit.op_class_0::SimdFloatDiv            3      0.00%     80.45% # Class of committed instruction
system.switch_cpus.commit.op_class_0::SimdFloatMisc            0      0.00%     80.45% # Class of committed instruction
system.switch_cpus.commit.op_class_0::SimdFloatMult            9      0.00%     80.45% # Class of committed instruction
system.switch_cpus.commit.op_class_0::SimdFloatMultAcc            0      0.00%     80.45% # Class of committed instruction
system.switch_cpus.commit.op_class_0::SimdFloatSqrt            0      0.00%     80.45% # Class of committed instruction
system.switch_cpus.commit.op_class_0::SimdReduceAdd            0      0.00%     80.45% # Class of committed instruction
system.switch_cpus.commit.op_class_0::SimdReduceAlu            0      0.00%     80.45% # Class of committed instruction
system.switch_cpus.commit.op_class_0::SimdReduceCmp            0      0.00%     80.45% # Class of committed instruction
system.switch_cpus.commit.op_class_0::SimdFloatReduceAdd            0      0.00%     80.45% # Class of committed instruction
system.switch_cpus.commit.op_class_0::SimdFloatReduceCmp            0      0.00%     80.45% # Class of committed instruction
system.switch_cpus.commit.op_class_0::SimdAes            0      0.00%     80.45% # Class of committed instruction
system.switch_cpus.commit.op_class_0::SimdAesMix            0      0.00%     80.45% # Class of committed instruction
system.switch_cpus.commit.op_class_0::SimdSha1Hash            0      0.00%     80.45% # Class of committed instruction
system.switch_cpus.commit.op_class_0::SimdSha1Hash2            0      0.00%     80.45% # Class of committed instruction
system.switch_cpus.commit.op_class_0::SimdSha256Hash            0      0.00%     80.45% # Class of committed instruction
system.switch_cpus.commit.op_class_0::SimdSha256Hash2            0      0.00%     80.45% # Class of committed instruction
system.switch_cpus.commit.op_class_0::SimdShaSigma2            0      0.00%     80.45% # Class of committed instruction
system.switch_cpus.commit.op_class_0::SimdShaSigma3            0      0.00%     80.45% # Class of committed instruction
system.switch_cpus.commit.op_class_0::SimdPredAlu            0      0.00%     80.45% # Class of committed instruction
system.switch_cpus.commit.op_class_0::MemRead      2360976     11.85%     92.30% # Class of committed instruction
system.switch_cpus.commit.op_class_0::MemWrite      1491722      7.49%     99.79% # Class of committed instruction
system.switch_cpus.commit.op_class_0::FloatMemRead        26809      0.13%     99.93% # Class of committed instruction
system.switch_cpus.commit.op_class_0::FloatMemWrite        14190      0.07%    100.00% # Class of committed instruction
system.switch_cpus.commit.op_class_0::IprAccess            0      0.00%    100.00% # Class of committed instruction
system.switch_cpus.commit.op_class_0::InstPrefetch            0      0.00%    100.00% # Class of committed instruction
system.switch_cpus.commit.op_class_0::total     19918132                       # Class of committed instruction
system.switch_cpus.commit.refs                3893697                       # Number of memory references committed
system.switch_cpus.commit.swp_count                 0                       # Number of s/w prefetches committed
system.switch_cpus.commit.vec_insts                 0                       # Number of committed Vector instructions.
system.switch_cpus.committedInsts            10000000                       # Number of Instructions Simulated
system.switch_cpus.committedOps              19918132                       # Number of Ops (including micro ops) Simulated
system.switch_cpus.cpi                       9.624944                       # CPI: Cycles Per Instruction
system.switch_cpus.cpi_total                 9.624944                       # CPI: Total CPI of All Threads
system.switch_cpus.decode.BlockedCycles      10818705                       # Number of cycles decode is blocked
system.switch_cpus.decode.DecodedInsts       49822349                       # Number of instructions handled by decode
system.switch_cpus.decode.IdleCycles         24326965                       # Number of cycles decode is idle
system.switch_cpus.decode.RunCycles           6706447                       # Number of cycles decode is running
system.switch_cpus.decode.SquashCycles        1057316                       # Number of cycles decode is squashing
system.switch_cpus.decode.UnblockCycles        551466                       # Number of cycles decode is unblocking
system.switch_cpus.dtb.rdAccesses             4138118                       # TLB accesses on read requests
system.switch_cpus.dtb.rdMisses                 82077                       # TLB misses on read requests
system.switch_cpus.dtb.wrAccesses             2234226                       # TLB accesses on write requests
system.switch_cpus.dtb.wrMisses                 11382                       # TLB misses on write requests
system.switch_cpus.fetch.Branches             6626112                       # Number of branches that fetch encountered
system.switch_cpus.fetch.CacheLines           3405784                       # Number of cache lines fetched
system.switch_cpus.fetch.Cycles              15769484                       # Number of cycles fetch has run and was not squashing or blocked
system.switch_cpus.fetch.IcacheSquashes        613870                       # Number of outstanding Icache misses that were squashed
system.switch_cpus.fetch.IcacheWaitRetryStallCycles        43754                       # Number of stall cycles due to full MSHR
system.switch_cpus.fetch.Insts               26809672                       # Number of instructions fetch has processed
system.switch_cpus.fetch.MiscStallCycles       138009                       # Number of cycles fetch has spent waiting on interrupts, or bad addresses, or out of MSHRs
system.switch_cpus.fetch.PendingQuiesceStallCycles           90                       # Number of stall cycles due to pending quiesce instructions
system.switch_cpus.fetch.PendingTrapStallCycles       697502                       # Number of stall cycles due to pending traps
system.switch_cpus.fetch.SquashCycles         2114632                       # Number of cycles fetch has spent squashing
system.switch_cpus.fetch.TlbCycles                  2                       # Number of cycles fetch has spent waiting for tlb
system.switch_cpus.fetch.branchRate          0.068843                       # Number of branch fetches per cycle
system.switch_cpus.fetch.icacheStallCycles     25754744                       # Number of cycles fetch is stalled on an Icache miss
system.switch_cpus.fetch.predictedBranches      1113968                       # Number of branches that fetch has predicted taken
system.switch_cpus.fetch.rate                0.278544                       # Number of inst fetches per cycle
system.switch_cpus.fetch.rateDist::samples     43460901                       # Number of instructions fetched each cycle (Total)
system.switch_cpus.fetch.rateDist::mean      1.259022                       # Number of instructions fetched each cycle (Total)
system.switch_cpus.fetch.rateDist::stdev     2.782642                       # Number of instructions fetched each cycle (Total)
system.switch_cpus.fetch.rateDist::underflows            0      0.00%      0.00% # Number of instructions fetched each cycle (Total)
system.switch_cpus.fetch.rateDist::0         35222246     81.04%     81.04% # Number of instructions fetched each cycle (Total)
system.switch_cpus.fetch.rateDist::1           441940      1.02%     82.06% # Number of instructions fetched each cycle (Total)
system.switch_cpus.fetch.rateDist::2           376156      0.87%     82.93% # Number of instructions fetched each cycle (Total)
system.switch_cpus.fetch.rateDist::3           442885      1.02%     83.94% # Number of instructions fetched each cycle (Total)
system.switch_cpus.fetch.rateDist::4           347649      0.80%     84.74% # Number of instructions fetched each cycle (Total)
system.switch_cpus.fetch.rateDist::5           401411      0.92%     85.67% # Number of instructions fetched each cycle (Total)
system.switch_cpus.fetch.rateDist::6           360230      0.83%     86.50% # Number of instructions fetched each cycle (Total)
system.switch_cpus.fetch.rateDist::7           310783      0.72%     87.21% # Number of instructions fetched each cycle (Total)
system.switch_cpus.fetch.rateDist::8          5557601     12.79%    100.00% # Number of instructions fetched each cycle (Total)
system.switch_cpus.fetch.rateDist::overflows            0      0.00%    100.00% # Number of instructions fetched each cycle (Total)
system.switch_cpus.fetch.rateDist::min_value            0                       # Number of instructions fetched each cycle (Total)
system.switch_cpus.fetch.rateDist::max_value            8                       # Number of instructions fetched each cycle (Total)
system.switch_cpus.fetch.rateDist::total     43460901                       # Number of instructions fetched each cycle (Total)
system.switch_cpus.fp_regfile_reads            441804                       # number of floating regfile reads
system.switch_cpus.fp_regfile_writes           216350                       # number of floating regfile writes
system.switch_cpus.idleCycles                52788541                       # Total number of cycles that the CPU has spent unscheduled due to idling
system.switch_cpus.iew.branchMispredicts      1320620                       # Number of branch mispredicts detected at execute
system.switch_cpus.iew.exec_branches          3484416                       # Number of branches executed
system.switch_cpus.iew.exec_nop                     0                       # number of nop insts executed
system.switch_cpus.iew.exec_rate             0.354996                       # Inst execution rate
system.switch_cpus.iew.exec_refs              6485558                       # number of memory reference insts executed
system.switch_cpus.iew.exec_stores            2233892                       # Number of stores executed
system.switch_cpus.iew.exec_swp                     0                       # number of swp insts executed
system.switch_cpus.iew.iewBlockCycles         5493516                       # Number of cycles IEW is blocking
system.switch_cpus.iew.iewDispLoadInsts       5434681                       # Number of dispatched load instructions
system.switch_cpus.iew.iewDispNonSpecInsts        28002                       # Number of dispatched non-speculative instructions
system.switch_cpus.iew.iewDispSquashedInsts        84604                       # Number of squashed instructions skipped by dispatch
system.switch_cpus.iew.iewDispStoreInsts      2994820                       # Number of dispatched store instructions
system.switch_cpus.iew.iewDispatchedInsts     42665439                       # Number of instructions dispatched to IQ
system.switch_cpus.iew.iewExecLoadInsts       4251666                       # Number of load instructions executed
system.switch_cpus.iew.iewExecSquashedInsts      1610894                       # Number of squashed instructions skipped in execute
system.switch_cpus.iew.iewExecutedInsts      34168149                       # Number of executed instructions
system.switch_cpus.iew.iewIQFullEvents          47709                       # Number of times the IQ has become full, causing a stall
system.switch_cpus.iew.iewIdleCycles                0                       # Number of cycles IEW is idle
system.switch_cpus.iew.iewLSQFullEvents        316313                       # Number of times the LSQ has become full, causing a stall
system.switch_cpus.iew.iewSquashCycles        1057316                       # Number of cycles IEW is squashing
system.switch_cpus.iew.iewUnblockCycles        381558                       # Number of cycles IEW is unblocking
system.switch_cpus.iew.lsq.thread0.blockedLoads            0                       # Number of blocked loads due to partial load-store forwarding
system.switch_cpus.iew.lsq.thread0.cacheBlocked        46028                       # Number of times an access to memory failed due to the cache being blocked
system.switch_cpus.iew.lsq.thread0.forwLoads       250603                       # Number of loads that had data forwarded from stores
system.switch_cpus.iew.lsq.thread0.ignoredResponses         3991                       # Number of memory responses ignored because the instruction is squashed
system.switch_cpus.iew.lsq.thread0.invAddrLoads            0                       # Number of loads ignored due to an invalid address
system.switch_cpus.iew.lsq.thread0.invAddrSwpfs            0                       # Number of software prefetches ignored due to an invalid address
system.switch_cpus.iew.lsq.thread0.memOrderViolation         4200                       # Number of memory ordering violations
system.switch_cpus.iew.lsq.thread0.rescheduledLoads         3677                       # Number of loads that were rescheduled
system.switch_cpus.iew.lsq.thread0.squashedLoads      3046896                       # Number of loads squashed
system.switch_cpus.iew.lsq.thread0.squashedStores      1488908                       # Number of stores squashed
system.switch_cpus.iew.memOrderViolationEvents         4200                       # Number of memory order violations
system.switch_cpus.iew.predictedNotTakenIncorrect      1295673                       # Number of branches that were predicted not taken incorrectly
system.switch_cpus.iew.predictedTakenIncorrect        24947                       # Number of branches that were predicted taken incorrectly
system.switch_cpus.iew.wb_consumers          35540091                       # num instructions consuming a value
system.switch_cpus.iew.wb_count              33126202                       # cumulative count of insts written-back
system.switch_cpus.iew.wb_fanout             0.661850                       # average fanout of values written-back
system.switch_cpus.iew.wb_producers          23522223                       # num instructions producing a value
system.switch_cpus.iew.wb_rate               0.344170                       # insts written-back per cycle
system.switch_cpus.iew.wb_sent               33503037                       # cumulative count of insts sent to commit
system.switch_cpus.int_regfile_reads         43604120                       # number of integer regfile reads
system.switch_cpus.int_regfile_writes        26899953                       # number of integer regfile writes
system.switch_cpus.ipc                       0.103897                       # IPC: Instructions Per Cycle
system.switch_cpus.ipc_total                 0.103897                       # IPC: Total IPC of All Threads
system.switch_cpus.iq.FU_type_0::No_OpClass       619270      1.73%      1.73% # Type of FU issued
system.switch_cpus.iq.FU_type_0::IntAlu      28007416     78.28%     80.01% # Type of FU issued
system.switch_cpus.iq.FU_type_0::IntMult          663      0.00%     80.01% # Type of FU issued
system.switch_cpus.iq.FU_type_0::IntDiv          2343      0.01%     80.02% # Type of FU issued
system.switch_cpus.iq.FU_type_0::FloatAdd        25506      0.07%     80.09% # Type of FU issued
system.switch_cpus.iq.FU_type_0::FloatCmp            0      0.00%     80.09% # Type of FU issued
system.switch_cpus.iq.FU_type_0::FloatCvt        17858      0.05%     80.14% # Type of FU issued
system.switch_cpus.iq.FU_type_0::FloatMult            0      0.00%     80.14% # Type of FU issued
system.switch_cpus.iq.FU_type_0::FloatMultAcc            0      0.00%     80.14% # Type of FU issued
system.switch_cpus.iq.FU_type_0::FloatDiv            0      0.00%     80.14% # Type of FU issued
system.switch_cpus.iq.FU_type_0::FloatMisc            0      0.00%     80.14% # Type of FU issued
system.switch_cpus.iq.FU_type_0::FloatSqrt            0      0.00%     80.14% # Type of FU issued
system.switch_cpus.iq.FU_type_0::SimdAdd         5568      0.02%     80.15% # Type of FU issued
system.switch_cpus.iq.FU_type_0::SimdAddAcc            0      0.00%     80.15% # Type of FU issued
system.switch_cpus.iq.FU_type_0::SimdAlu        41185      0.12%     80.27% # Type of FU issued
system.switch_cpus.iq.FU_type_0::SimdCmp            0      0.00%     80.27% # Type of FU issued
system.switch_cpus.iq.FU_type_0::SimdCvt        47118      0.13%     80.40% # Type of FU issued
system.switch_cpus.iq.FU_type_0::SimdMisc        75987      0.21%     80.61% # Type of FU issued
system.switch_cpus.iq.FU_type_0::SimdMult            0      0.00%     80.61% # Type of FU issued
system.switch_cpus.iq.FU_type_0::SimdMultAcc            0      0.00%     80.61% # Type of FU issued
system.switch_cpus.iq.FU_type_0::SimdShift            0      0.00%     80.61% # Type of FU issued
system.switch_cpus.iq.FU_type_0::SimdShiftAcc            0      0.00%     80.61% # Type of FU issued
system.switch_cpus.iq.FU_type_0::SimdDiv            0      0.00%     80.61% # Type of FU issued
system.switch_cpus.iq.FU_type_0::SimdSqrt            0      0.00%     80.61% # Type of FU issued
system.switch_cpus.iq.FU_type_0::SimdFloatAdd           25      0.00%     80.61% # Type of FU issued
system.switch_cpus.iq.FU_type_0::SimdFloatAlu            0      0.00%     80.61% # Type of FU issued
system.switch_cpus.iq.FU_type_0::SimdFloatCmp            0      0.00%     80.61% # Type of FU issued
system.switch_cpus.iq.FU_type_0::SimdFloatCvt         2216      0.01%     80.62% # Type of FU issued
system.switch_cpus.iq.FU_type_0::SimdFloatDiv            3      0.00%     80.62% # Type of FU issued
system.switch_cpus.iq.FU_type_0::SimdFloatMisc            0      0.00%     80.62% # Type of FU issued
system.switch_cpus.iq.FU_type_0::SimdFloatMult           29      0.00%     80.62% # Type of FU issued
system.switch_cpus.iq.FU_type_0::SimdFloatMultAcc            0      0.00%     80.62% # Type of FU issued
system.switch_cpus.iq.FU_type_0::SimdFloatSqrt            0      0.00%     80.62% # Type of FU issued
system.switch_cpus.iq.FU_type_0::SimdReduceAdd            0      0.00%     80.62% # Type of FU issued
system.switch_cpus.iq.FU_type_0::SimdReduceAlu            0      0.00%     80.62% # Type of FU issued
system.switch_cpus.iq.FU_type_0::SimdReduceCmp            0      0.00%     80.62% # Type of FU issued
system.switch_cpus.iq.FU_type_0::SimdFloatReduceAdd            0      0.00%     80.62% # Type of FU issued
system.switch_cpus.iq.FU_type_0::SimdFloatReduceCmp            0      0.00%     80.62% # Type of FU issued
system.switch_cpus.iq.FU_type_0::SimdAes            0      0.00%     80.62% # Type of FU issued
system.switch_cpus.iq.FU_type_0::SimdAesMix            0      0.00%     80.62% # Type of FU issued
system.switch_cpus.iq.FU_type_0::SimdSha1Hash            0      0.00%     80.62% # Type of FU issued
system.switch_cpus.iq.FU_type_0::SimdSha1Hash2            0      0.00%     80.62% # Type of FU issued
system.switch_cpus.iq.FU_type_0::SimdSha256Hash            0      0.00%     80.62% # Type of FU issued
system.switch_cpus.iq.FU_type_0::SimdSha256Hash2            0      0.00%     80.62% # Type of FU issued
system.switch_cpus.iq.FU_type_0::SimdShaSigma2            0      0.00%     80.62% # Type of FU issued
system.switch_cpus.iq.FU_type_0::SimdShaSigma3            0      0.00%     80.62% # Type of FU issued
system.switch_cpus.iq.FU_type_0::SimdPredAlu            0      0.00%     80.62% # Type of FU issued
system.switch_cpus.iq.FU_type_0::MemRead      4474891     12.51%     93.13% # Type of FU issued
system.switch_cpus.iq.FU_type_0::MemWrite      2359191      6.59%     99.72% # Type of FU issued
system.switch_cpus.iq.FU_type_0::FloatMemRead        62084      0.17%     99.89% # Type of FU issued
system.switch_cpus.iq.FU_type_0::FloatMemWrite        37690      0.11%    100.00% # Type of FU issued
system.switch_cpus.iq.FU_type_0::IprAccess            0      0.00%    100.00% # Type of FU issued
system.switch_cpus.iq.FU_type_0::InstPrefetch            0      0.00%    100.00% # Type of FU issued
system.switch_cpus.iq.FU_type_0::total       35779043                       # Type of FU issued
system.switch_cpus.iq.fp_alu_accesses          347533                       # Number of floating point alu accesses
system.switch_cpus.iq.fp_inst_queue_reads       685187                       # Number of floating instruction queue reads
system.switch_cpus.iq.fp_inst_queue_wakeup_accesses       307513                       # Number of floating instruction queue wakeup accesses
system.switch_cpus.iq.fp_inst_queue_writes       595133                       # Number of floating instruction queue writes
system.switch_cpus.iq.fu_busy_cnt              531035                       # FU busy when requested
system.switch_cpus.iq.fu_busy_rate           0.014842                       # FU busy rate (busy events/executed inst)
system.switch_cpus.iq.fu_full::No_OpClass            0      0.00%      0.00% # attempts to use FU when none available
system.switch_cpus.iq.fu_full::IntAlu          474798     89.41%     89.41% # attempts to use FU when none available
system.switch_cpus.iq.fu_full::IntMult              0      0.00%     89.41% # attempts to use FU when none available
system.switch_cpus.iq.fu_full::IntDiv               0      0.00%     89.41% # attempts to use FU when none available
system.switch_cpus.iq.fu_full::FloatAdd             0      0.00%     89.41% # attempts to use FU when none available
system.switch_cpus.iq.fu_full::FloatCmp             0      0.00%     89.41% # attempts to use FU when none available
system.switch_cpus.iq.fu_full::FloatCvt             3      0.00%     89.41% # attempts to use FU when none available
system.switch_cpus.iq.fu_full::FloatMult            0      0.00%     89.41% # attempts to use FU when none available
system.switch_cpus.iq.fu_full::FloatMultAcc            0      0.00%     89.41% # attempts to use FU when none available
system.switch_cpus.iq.fu_full::FloatDiv             0      0.00%     89.41% # attempts to use FU when none available
system.switch_cpus.iq.fu_full::FloatMisc            0      0.00%     89.41% # attempts to use FU when none available
system.switch_cpus.iq.fu_full::FloatSqrt            0      0.00%     89.41% # attempts to use FU when none available
system.switch_cpus.iq.fu_full::SimdAdd              0      0.00%     89.41% # attempts to use FU when none available
system.switch_cpus.iq.fu_full::SimdAddAcc            0      0.00%     89.41% # attempts to use FU when none available
system.switch_cpus.iq.fu_full::SimdAlu            498      0.09%     89.50% # attempts to use FU when none available
system.switch_cpus.iq.fu_full::SimdCmp              0      0.00%     89.50% # attempts to use FU when none available
system.switch_cpus.iq.fu_full::SimdCvt           1333      0.25%     89.76% # attempts to use FU when none available
system.switch_cpus.iq.fu_full::SimdMisc            21      0.00%     89.76% # attempts to use FU when none available
system.switch_cpus.iq.fu_full::SimdMult             0      0.00%     89.76% # attempts to use FU when none available
system.switch_cpus.iq.fu_full::SimdMultAcc            0      0.00%     89.76% # attempts to use FU when none available
system.switch_cpus.iq.fu_full::SimdShift            0      0.00%     89.76% # attempts to use FU when none available
system.switch_cpus.iq.fu_full::SimdShiftAcc            0      0.00%     89.76% # attempts to use FU when none available
system.switch_cpus.iq.fu_full::SimdDiv              0      0.00%     89.76% # attempts to use FU when none available
system.switch_cpus.iq.fu_full::SimdSqrt             0      0.00%     89.76% # attempts to use FU when none available
system.switch_cpus.iq.fu_full::SimdFloatAdd            0      0.00%     89.76% # attempts to use FU when none available
system.switch_cpus.iq.fu_full::SimdFloatAlu            0      0.00%     89.76% # attempts to use FU when none available
system.switch_cpus.iq.fu_full::SimdFloatCmp            0      0.00%     89.76% # attempts to use FU when none available
system.switch_cpus.iq.fu_full::SimdFloatCvt            0      0.00%     89.76% # attempts to use FU when none available
system.switch_cpus.iq.fu_full::SimdFloatDiv            0      0.00%     89.76% # attempts to use FU when none available
system.switch_cpus.iq.fu_full::SimdFloatMisc            0      0.00%     89.76% # attempts to use FU when none available
system.switch_cpus.iq.fu_full::SimdFloatMult            0      0.00%     89.76% # attempts to use FU when none available
system.switch_cpus.iq.fu_full::SimdFloatMultAcc            0      0.00%     89.76% # attempts to use FU when none available
system.switch_cpus.iq.fu_full::SimdFloatSqrt            0      0.00%     89.76% # attempts to use FU when none available
system.switch_cpus.iq.fu_full::SimdReduceAdd            0      0.00%     89.76% # attempts to use FU when none available
system.switch_cpus.iq.fu_full::SimdReduceAlu            0      0.00%     89.76% # attempts to use FU when none available
system.switch_cpus.iq.fu_full::SimdReduceCmp            0      0.00%     89.76% # attempts to use FU when none available
system.switch_cpus.iq.fu_full::SimdFloatReduceAdd            0      0.00%     89.76% # attempts to use FU when none available
system.switch_cpus.iq.fu_full::SimdFloatReduceCmp            0      0.00%     89.76% # attempts to use FU when none available
system.switch_cpus.iq.fu_full::SimdAes              0      0.00%     89.76% # attempts to use FU when none available
system.switch_cpus.iq.fu_full::SimdAesMix            0      0.00%     89.76% # attempts to use FU when none available
system.switch_cpus.iq.fu_full::SimdSha1Hash            0      0.00%     89.76% # attempts to use FU when none available
system.switch_cpus.iq.fu_full::SimdSha1Hash2            0      0.00%     89.76% # attempts to use FU when none available
system.switch_cpus.iq.fu_full::SimdSha256Hash            0      0.00%     89.76% # attempts to use FU when none available
system.switch_cpus.iq.fu_full::SimdSha256Hash2            0      0.00%     89.76% # attempts to use FU when none available
system.switch_cpus.iq.fu_full::SimdShaSigma2            0      0.00%     89.76% # attempts to use FU when none available
system.switch_cpus.iq.fu_full::SimdShaSigma3            0      0.00%     89.76% # attempts to use FU when none available
system.switch_cpus.iq.fu_full::SimdPredAlu            0      0.00%     89.76% # attempts to use FU when none available
system.switch_cpus.iq.fu_full::MemRead          29811      5.61%     95.37% # attempts to use FU when none available
system.switch_cpus.iq.fu_full::MemWrite         14789      2.78%     98.16% # attempts to use FU when none available
system.switch_cpus.iq.fu_full::FloatMemRead         4631      0.87%     99.03% # attempts to use FU when none available
system.switch_cpus.iq.fu_full::FloatMemWrite         5151      0.97%    100.00% # attempts to use FU when none available
system.switch_cpus.iq.fu_full::IprAccess            0      0.00%    100.00% # attempts to use FU when none available
system.switch_cpus.iq.fu_full::InstPrefetch            0      0.00%    100.00% # attempts to use FU when none available
system.switch_cpus.iq.int_alu_accesses       35343275                       # Number of integer alu accesses
system.switch_cpus.iq.int_inst_queue_reads    115078123                       # Number of integer instruction queue reads
system.switch_cpus.iq.int_inst_queue_wakeup_accesses     32818689                       # Number of integer instruction queue wakeup accesses
system.switch_cpus.iq.int_inst_queue_writes     64821145                       # Number of integer instruction queue writes
system.switch_cpus.iq.iqInstsAdded           42580329                       # Number of instructions added to the IQ (excludes non-spec)
system.switch_cpus.iq.iqInstsIssued          35779043                       # Number of instructions issued
system.switch_cpus.iq.iqNonSpecInstsAdded        85110                       # Number of non-speculative instructions added to the IQ
system.switch_cpus.iq.iqSquashedInstsExamined     22747307                       # Number of squashed instructions iterated over during squash; mainly for profiling
system.switch_cpus.iq.iqSquashedInstsIssued       213288                       # Number of squashed instructions issued
system.switch_cpus.iq.iqSquashedNonSpecRemoved        83199                       # Number of squashed non-spec instructions that were removed
system.switch_cpus.iq.iqSquashedOperandsExamined     29332805                       # Number of squashed operands that are examined and possibly removed from graph
system.switch_cpus.iq.issued_per_cycle::samples     43460901                       # Number of insts issued each cycle
system.switch_cpus.iq.issued_per_cycle::mean     0.823247                       # Number of insts issued each cycle
system.switch_cpus.iq.issued_per_cycle::stdev     1.767932                       # Number of insts issued each cycle
system.switch_cpus.iq.issued_per_cycle::underflows            0      0.00%      0.00% # Number of insts issued each cycle
system.switch_cpus.iq.issued_per_cycle::0     32871924     75.64%     75.64% # Number of insts issued each cycle
system.switch_cpus.iq.issued_per_cycle::1      2607445      6.00%     81.64% # Number of insts issued each cycle
system.switch_cpus.iq.issued_per_cycle::2      1943319      4.47%     86.11% # Number of insts issued each cycle
system.switch_cpus.iq.issued_per_cycle::3      1386878      3.19%     89.30% # Number of insts issued each cycle
system.switch_cpus.iq.issued_per_cycle::4      1358899      3.13%     92.42% # Number of insts issued each cycle
system.switch_cpus.iq.issued_per_cycle::5      1246055      2.87%     95.29% # Number of insts issued each cycle
system.switch_cpus.iq.issued_per_cycle::6      1129929      2.60%     97.89% # Number of insts issued each cycle
system.switch_cpus.iq.issued_per_cycle::7       652735      1.50%     99.39% # Number of insts issued each cycle
system.switch_cpus.iq.issued_per_cycle::8       263717      0.61%    100.00% # Number of insts issued each cycle
system.switch_cpus.iq.issued_per_cycle::overflows            0      0.00%    100.00% # Number of insts issued each cycle
system.switch_cpus.iq.issued_per_cycle::min_value            0                       # Number of insts issued each cycle
system.switch_cpus.iq.issued_per_cycle::max_value            8                       # Number of insts issued each cycle
system.switch_cpus.iq.issued_per_cycle::total     43460901                       # Number of insts issued each cycle
system.switch_cpus.iq.rate                   0.371732                       # Inst issue rate
system.switch_cpus.iq.vec_alu_accesses              0                       # Number of vector alu accesses
system.switch_cpus.iq.vec_inst_queue_reads            0                       # Number of vector instruction queue reads
system.switch_cpus.iq.vec_inst_queue_wakeup_accesses            0                       # Number of vector instruction queue wakeup accesses
system.switch_cpus.iq.vec_inst_queue_writes            0                       # Number of vector instruction queue writes
system.switch_cpus.itb.rdAccesses                   0                       # TLB accesses on read requests
system.switch_cpus.itb.rdMisses                     0                       # TLB misses on read requests
system.switch_cpus.itb.wrAccesses             3522994                       # TLB accesses on write requests
system.switch_cpus.itb.wrMisses                129422                       # TLB misses on write requests
system.switch_cpus.memDep0.conflictingLoads       255186                       # Number of conflicting loads.
system.switch_cpus.memDep0.conflictingStores       244846                       # Number of conflicting stores.
system.switch_cpus.memDep0.insertedLoads      5434681                       # Number of loads inserted to the mem dependence unit.
system.switch_cpus.memDep0.insertedStores      2994820                       # Number of stores inserted to the mem dependence unit.
system.switch_cpus.misc_regfile_reads        15565218                       # number of misc regfile reads
system.switch_cpus.misc_regfile_writes            292                       # number of misc regfile writes
system.switch_cpus.numCycles                 96249442                       # number of cpu cycles simulated
system.switch_cpus.numWorkItemsCompleted            0                       # number of work items this cpu completed
system.switch_cpus.numWorkItemsStarted              0                       # number of work items this cpu started
system.switch_cpus.rename.BlockCycles         9517667                       # Number of cycles rename is blocking
system.switch_cpus.rename.CommittedMaps      22211260                       # Number of HB maps that are committed
system.switch_cpus.rename.IQFullEvents         379603                       # Number of times rename has blocked due to IQ full
system.switch_cpus.rename.IdleCycles         24722842                       # Number of cycles rename is idle
system.switch_cpus.rename.LQFullEvents         137926                       # Number of times rename has blocked due to LQ full
system.switch_cpus.rename.ROBFullEvents        171317                       # Number of times rename has blocked due to ROB full
system.switch_cpus.rename.RenameLookups     112994360                       # Number of register rename lookups that rename has made
system.switch_cpus.rename.RenamedInsts       47306963                       # Number of instructions processed by rename
system.switch_cpus.rename.RenamedOperands     50856873                       # Number of destination operands rename has renamed
system.switch_cpus.rename.RunCycles           6769634                       # Number of cycles rename is running
system.switch_cpus.rename.SQFullEvents         693436                       # Number of times rename has blocked due to SQ full
system.switch_cpus.rename.SquashCycles        1057316                       # Number of cycles rename is squashing
system.switch_cpus.rename.UnblockCycles       1377196                       # Number of cycles rename is unblocking
system.switch_cpus.rename.UndoneMaps         28645613                       # Number of HB maps that are undone due to squashing
system.switch_cpus.rename.fp_rename_lookups       577981                       # Number of floating rename lookups
system.switch_cpus.rename.int_rename_lookups     66110274                       # Number of integer rename lookups
system.switch_cpus.rename.serializeStallCycles        16245                       # count of cycles rename stalled for serializing inst
system.switch_cpus.rename.serializingInsts          560                       # count of serializing insts renamed
system.switch_cpus.rename.skidInsts           1901488                       # count of insts added to the skid buffer
system.switch_cpus.rename.tempSerializingInsts          492                       # count of temporary serializing insts renamed
system.switch_cpus.rob.rob_reads             81145338                       # The number of ROB reads
system.switch_cpus.rob.rob_writes            89445866                       # The number of ROB writes
system.switch_cpus.timesIdled                  709514                       # Number of times that the entire CPU went into an idle state and unscheduled itself
system.tol2bus.snoop_filter.hit_multi_requests         1755                       # Number of requests hitting in the snoop filter with multiple (>1) holders of the requested data.
system.tol2bus.snoop_filter.hit_multi_snoops          349                       # Number of snoops hitting in the snoop filter with multiple (>1) holders of the requested data.
system.tol2bus.snoop_filter.hit_single_requests      1706805                       # Number of requests hitting in the snoop filter with a single holder of the requested data.
system.tol2bus.snoop_filter.hit_single_snoops       336149                       # Number of snoops hitting in the snoop filter with a single holder of the requested data.
system.tol2bus.snoop_filter.tot_requests      3413933                       # Total number of requests made to the snoop filter.
system.tol2bus.snoop_filter.tot_snoops         336498                       # Total number of snoops made to the snoop filter.
system.membus.trans_dist::ReadResp             956911                       # Transaction distribution
system.membus.trans_dist::WritebackDirty       105202                       # Transaction distribution
system.membus.trans_dist::CleanEvict           902410                       # Transaction distribution
system.membus.trans_dist::UpgradeReq               42                       # Transaction distribution
system.membus.trans_dist::ReadExReq             51026                       # Transaction distribution
system.membus.trans_dist::ReadExResp            51026                       # Transaction distribution
system.membus.trans_dist::ReadSharedReq        956911                       # Transaction distribution
system.membus.pkt_count_system.l2.mem_side::system.mem_ctrls.port      3023528                       # Packet count per connected master and slave (bytes)
system.membus.pkt_count_system.l2.mem_side::total      3023528                       # Packet count per connected master and slave (bytes)
system.membus.pkt_count::total                3023528                       # Packet count per connected master and slave (bytes)
system.membus.pkt_size_system.l2.mem_side::system.mem_ctrls.port     71240896                       # Cumulative packet size per connected master and slave (bytes)
system.membus.pkt_size_system.l2.mem_side::total     71240896                       # Cumulative packet size per connected master and slave (bytes)
system.membus.pkt_size::total                71240896                       # Cumulative packet size per connected master and slave (bytes)
system.membus.snoops                                0                       # Total snoops (count)
system.membus.snoopTraffic                          0                       # Total snoop traffic (bytes)
system.membus.snoop_fanout::samples           1007979                       # Request fanout histogram
system.membus.snoop_fanout::mean                    0                       # Request fanout histogram
system.membus.snoop_fanout::stdev                   0                       # Request fanout histogram
system.membus.snoop_fanout::underflows              0      0.00%      0.00% # Request fanout histogram
system.membus.snoop_fanout::0                 1007979    100.00%    100.00% # Request fanout histogram
system.membus.snoop_fanout::1                       0      0.00%    100.00% # Request fanout histogram
system.membus.snoop_fanout::overflows               0      0.00%    100.00% # Request fanout histogram
system.membus.snoop_fanout::min_value               0                       # Request fanout histogram
system.membus.snoop_fanout::max_value               0                       # Request fanout histogram
system.membus.snoop_fanout::total             1007979                       # Request fanout histogram
system.membus.reqLayer2.occupancy          2682265000                       # Layer occupancy (ticks)
system.membus.reqLayer2.utilization               5.6                       # Layer utilization (%)
system.membus.respLayer1.occupancy         5388565750                       # Layer occupancy (ticks)
system.membus.respLayer1.utilization             11.2                       # Layer utilization (%)
system.membus.power_state.pwrStateResidencyTicks::UNDEFINED  48124731500                       # Cumulative time (in ticks) in various power states
system.switch_cpus.dtb.walker.power_state.pwrStateResidencyTicks::UNDEFINED  48124731500                       # Cumulative time (in ticks) in various power states
system.switch_cpus.itb.walker.power_state.pwrStateResidencyTicks::UNDEFINED  48124731500                       # Cumulative time (in ticks) in various power states
system.switch_cpus.power_state.pwrStateResidencyTicks::OFF  48124731500                       # Cumulative time (in ticks) in various power states
system.tol2bus.trans_dist::ReadResp           1600902                       # Transaction distribution
system.tol2bus.trans_dist::WritebackDirty       360055                       # Transaction distribution
system.tol2bus.trans_dist::WritebackClean      1061494                       # Transaction distribution
system.tol2bus.trans_dist::CleanEvict         1516490                       # Transaction distribution
system.tol2bus.trans_dist::UpgradeReq             151                       # Transaction distribution
system.tol2bus.trans_dist::UpgradeResp            151                       # Transaction distribution
system.tol2bus.trans_dist::ReadExReq           106122                       # Transaction distribution
system.tol2bus.trans_dist::ReadExResp          106121                       # Transaction distribution
system.tol2bus.trans_dist::ReadCleanReq       1061695                       # Transaction distribution
system.tol2bus.trans_dist::ReadSharedReq       539207                       # Transaction distribution
system.tol2bus.pkt_count_system.cpu.icache.mem_side::system.l2.cpu_side      3184687                       # Packet count per connected master and slave (bytes)
system.tol2bus.pkt_count_system.cpu.dcache.mem_side::system.l2.cpu_side      1936223                       # Packet count per connected master and slave (bytes)
system.tol2bus.pkt_count::total               5120910                       # Packet count per connected master and slave (bytes)
system.tol2bus.pkt_size_system.cpu.icache.mem_side::system.l2.cpu_side    135871488                       # Cumulative packet size per connected master and slave (bytes)
system.tol2bus.pkt_size_system.cpu.dcache.mem_side::system.l2.cpu_side     57611584                       # Cumulative packet size per connected master and slave (bytes)
system.tol2bus.pkt_size::total              193483072                       # Cumulative packet size per connected master and slave (bytes)
system.tol2bus.snoops                         1231478                       # Total snoops (count)
system.tol2bus.snoopTraffic                   6745536                       # Total snoop traffic (bytes)
system.tol2bus.snoop_fanout::samples          2938456                       # Request fanout histogram
system.tol2bus.snoop_fanout::mean            0.115232                       # Request fanout histogram
system.tol2bus.snoop_fanout::stdev           0.319674                       # Request fanout histogram
system.tol2bus.snoop_fanout::underflows             0      0.00%      0.00% # Request fanout histogram
system.tol2bus.snoop_fanout::0                2600200     88.49%     88.49% # Request fanout histogram
system.tol2bus.snoop_fanout::1                 337907     11.50%     99.99% # Request fanout histogram
system.tol2bus.snoop_fanout::2                    349      0.01%    100.00% # Request fanout histogram
system.tol2bus.snoop_fanout::3                      0      0.00%    100.00% # Request fanout histogram
system.tol2bus.snoop_fanout::4                      0      0.00%    100.00% # Request fanout histogram
system.tol2bus.snoop_fanout::overflows              0      0.00%    100.00% # Request fanout histogram
system.tol2bus.snoop_fanout::min_value              0                       # Request fanout histogram
system.tol2bus.snoop_fanout::max_value              2                       # Request fanout histogram
system.tol2bus.snoop_fanout::total            2938456                       # Request fanout histogram
system.tol2bus.reqLayer0.occupancy         3023312000                       # Layer occupancy (ticks)
system.tol2bus.reqLayer0.utilization              6.3                       # Layer utilization (%)
system.tol2bus.respLayer1.occupancy         968618892                       # Layer occupancy (ticks)
system.tol2bus.respLayer1.utilization             2.0                       # Layer utilization (%)
system.tol2bus.respLayer0.occupancy        1593209657                       # Layer occupancy (ticks)
system.tol2bus.respLayer0.utilization             3.3                       # Layer utilization (%)
system.tol2bus.power_state.pwrStateResidencyTicks::UNDEFINED  48124731500                       # Cumulative time (in ticks) in various power states
system.voltage_domain.voltage                       1                       # Voltage in Volts
system.clk_domain.clock                          1000                       # Clock period in ticks
system.l2.demand_hits::.switch_cpus.inst       437903                       # number of demand (read+write) hits
system.l2.demand_hits::.switch_cpus.data       260971                       # number of demand (read+write) hits
system.l2.demand_hits::total                   698874                       # number of demand (read+write) hits
system.l2.overall_hits::.switch_cpus.inst       437903                       # number of overall hits
system.l2.overall_hits::.switch_cpus.data       260971                       # number of overall hits
system.l2.overall_hits::total                  698874                       # number of overall hits
system.l2.demand_misses::.cpu.inst                  2                       # number of demand (read+write) misses
system.l2.demand_misses::.cpu.data                  1                       # number of demand (read+write) misses
system.l2.demand_misses::.switch_cpus.inst       623593                       # number of demand (read+write) misses
system.l2.demand_misses::.switch_cpus.data       384357                       # number of demand (read+write) misses
system.l2.demand_misses::total                1007953                       # number of demand (read+write) misses
system.l2.overall_misses::.cpu.inst                 2                       # number of overall misses
system.l2.overall_misses::.cpu.data                 1                       # number of overall misses
system.l2.overall_misses::.switch_cpus.inst       623593                       # number of overall misses
system.l2.overall_misses::.switch_cpus.data       384357                       # number of overall misses
system.l2.overall_misses::total               1007953                       # number of overall misses
system.l2.demand_miss_latency::.switch_cpus.inst  51476797000                       # number of demand (read+write) miss cycles
system.l2.demand_miss_latency::.switch_cpus.data  32560585500                       # number of demand (read+write) miss cycles
system.l2.demand_miss_latency::total      84037382500                       # number of demand (read+write) miss cycles
system.l2.overall_miss_latency::.switch_cpus.inst  51476797000                       # number of overall miss cycles
system.l2.overall_miss_latency::.switch_cpus.data  32560585500                       # number of overall miss cycles
system.l2.overall_miss_latency::total     84037382500                       # number of overall miss cycles
system.l2.demand_accesses::.cpu.inst                2                       # number of demand (read+write) accesses
system.l2.demand_accesses::.cpu.data                1                       # number of demand (read+write) accesses
system.l2.demand_accesses::.switch_cpus.inst      1061496                       # number of demand (read+write) accesses
system.l2.demand_accesses::.switch_cpus.data       645328                       # number of demand (read+write) accesses
system.l2.demand_accesses::total              1706827                       # number of demand (read+write) accesses
system.l2.overall_accesses::.cpu.inst               2                       # number of overall (read+write) accesses
system.l2.overall_accesses::.cpu.data               1                       # number of overall (read+write) accesses
system.l2.overall_accesses::.switch_cpus.inst      1061496                       # number of overall (read+write) accesses
system.l2.overall_accesses::.switch_cpus.data       645328                       # number of overall (read+write) accesses
system.l2.overall_accesses::total             1706827                       # number of overall (read+write) accesses
system.l2.demand_miss_rate::.cpu.inst               1                       # miss rate for demand accesses
system.l2.demand_miss_rate::.cpu.data               1                       # miss rate for demand accesses
system.l2.demand_miss_rate::.switch_cpus.inst     0.587466                       # miss rate for demand accesses
system.l2.demand_miss_rate::.switch_cpus.data     0.595599                       # miss rate for demand accesses
system.l2.demand_miss_rate::total            0.590542                       # miss rate for demand accesses
system.l2.overall_miss_rate::.cpu.inst              1                       # miss rate for overall accesses
system.l2.overall_miss_rate::.cpu.data              1                       # miss rate for overall accesses
system.l2.overall_miss_rate::.switch_cpus.inst     0.587466                       # miss rate for overall accesses
system.l2.overall_miss_rate::.switch_cpus.data     0.595599                       # miss rate for overall accesses
system.l2.overall_miss_rate::total           0.590542                       # miss rate for overall accesses
system.l2.demand_avg_miss_latency::.switch_cpus.inst 82548.708853                       # average overall miss latency
system.l2.demand_avg_miss_latency::.switch_cpus.data 84714.433456                       # average overall miss latency
system.l2.demand_avg_miss_latency::total 83374.306639                       # average overall miss latency
system.l2.overall_avg_miss_latency::.switch_cpus.inst 82548.708853                       # average overall miss latency
system.l2.overall_avg_miss_latency::.switch_cpus.data 84714.433456                       # average overall miss latency
system.l2.overall_avg_miss_latency::total 83374.306639                       # average overall miss latency
system.l2.blocked_cycles::no_mshrs                  0                       # number of cycles access was blocked
system.l2.blocked_cycles::no_targets                0                       # number of cycles access was blocked
system.l2.blocked::no_mshrs                         0                       # number of cycles access was blocked
system.l2.blocked::no_targets                       0                       # number of cycles access was blocked
system.l2.avg_blocked_cycles::no_mshrs            nan                       # average number of cycles each access was blocked
system.l2.avg_blocked_cycles::no_targets          nan                       # average number of cycles each access was blocked
system.l2.writebacks::.writebacks              105202                       # number of writebacks
system.l2.writebacks::total                    105202                       # number of writebacks
system.l2.demand_mshr_hits::.switch_cpus.inst           10                       # number of demand (read+write) MSHR hits
system.l2.demand_mshr_hits::.switch_cpus.data            3                       # number of demand (read+write) MSHR hits
system.l2.demand_mshr_hits::total                  13                       # number of demand (read+write) MSHR hits
system.l2.overall_mshr_hits::.switch_cpus.inst           10                       # number of overall MSHR hits
system.l2.overall_mshr_hits::.switch_cpus.data            3                       # number of overall MSHR hits
system.l2.overall_mshr_hits::total                 13                       # number of overall MSHR hits
system.l2.demand_mshr_misses::.switch_cpus.inst       623583                       # number of demand (read+write) MSHR misses
system.l2.demand_mshr_misses::.switch_cpus.data       384354                       # number of demand (read+write) MSHR misses
system.l2.demand_mshr_misses::total           1007937                       # number of demand (read+write) MSHR misses
system.l2.overall_mshr_misses::.switch_cpus.inst       623583                       # number of overall MSHR misses
system.l2.overall_mshr_misses::.switch_cpus.data       384354                       # number of overall MSHR misses
system.l2.overall_mshr_misses::total          1007937                       # number of overall MSHR misses
system.l2.demand_mshr_miss_latency::.switch_cpus.inst  45240477500                       # number of demand (read+write) MSHR miss cycles
system.l2.demand_mshr_miss_latency::.switch_cpus.data  28716908500                       # number of demand (read+write) MSHR miss cycles
system.l2.demand_mshr_miss_latency::total  73957386000                       # number of demand (read+write) MSHR miss cycles
system.l2.overall_mshr_miss_latency::.switch_cpus.inst  45240477500                       # number of overall MSHR miss cycles
system.l2.overall_mshr_miss_latency::.switch_cpus.data  28716908500                       # number of overall MSHR miss cycles
system.l2.overall_mshr_miss_latency::total  73957386000                       # number of overall MSHR miss cycles
system.l2.demand_mshr_miss_rate::.switch_cpus.inst     0.587457                       # mshr miss rate for demand accesses
system.l2.demand_mshr_miss_rate::.switch_cpus.data     0.595595                       # mshr miss rate for demand accesses
system.l2.demand_mshr_miss_rate::total       0.590533                       # mshr miss rate for demand accesses
system.l2.overall_mshr_miss_rate::.switch_cpus.inst     0.587457                       # mshr miss rate for overall accesses
system.l2.overall_mshr_miss_rate::.switch_cpus.data     0.595595                       # mshr miss rate for overall accesses
system.l2.overall_mshr_miss_rate::total      0.590533                       # mshr miss rate for overall accesses
system.l2.demand_avg_mshr_miss_latency::.switch_cpus.inst 72549.247654                       # average overall mshr miss latency
system.l2.demand_avg_mshr_miss_latency::.switch_cpus.data 74714.738236                       # average overall mshr miss latency
system.l2.demand_avg_mshr_miss_latency::total 73375.008557                       # average overall mshr miss latency
system.l2.overall_avg_mshr_miss_latency::.switch_cpus.inst 72549.247654                       # average overall mshr miss latency
system.l2.overall_avg_mshr_miss_latency::.switch_cpus.data 74714.738236                       # average overall mshr miss latency
system.l2.overall_avg_mshr_miss_latency::total 73375.008557                       # average overall mshr miss latency
system.l2.replacements                        1231281                       # number of replacements
system.l2.WritebackDirty_hits::.writebacks       254853                       # number of WritebackDirty hits
system.l2.WritebackDirty_hits::total           254853                       # number of WritebackDirty hits
system.l2.WritebackDirty_accesses::.writebacks       254853                       # number of WritebackDirty accesses(hits+misses)
system.l2.WritebackDirty_accesses::total       254853                       # number of WritebackDirty accesses(hits+misses)
system.l2.WritebackClean_hits::.writebacks      1061316                       # number of WritebackClean hits
system.l2.WritebackClean_hits::total          1061316                       # number of WritebackClean hits
system.l2.WritebackClean_accesses::.writebacks      1061316                       # number of WritebackClean accesses(hits+misses)
system.l2.WritebackClean_accesses::total      1061316                       # number of WritebackClean accesses(hits+misses)
system.l2.CleanEvict_mshr_misses::.writebacks       112019                       # number of CleanEvict MSHR misses
system.l2.CleanEvict_mshr_misses::total        112019                       # number of CleanEvict MSHR misses
system.l2.CleanEvict_mshr_miss_rate::.writebacks          inf                       # mshr miss rate for CleanEvict accesses
system.l2.CleanEvict_mshr_miss_rate::total          inf                       # mshr miss rate for CleanEvict accesses
system.l2.UpgradeReq_hits::.switch_cpus.data          111                       # number of UpgradeReq hits
system.l2.UpgradeReq_hits::total                  111                       # number of UpgradeReq hits
system.l2.UpgradeReq_misses::.switch_cpus.data           40                       # number of UpgradeReq misses
system.l2.UpgradeReq_misses::total                 40                       # number of UpgradeReq misses
system.l2.UpgradeReq_miss_latency::.switch_cpus.data       236500                       # number of UpgradeReq miss cycles
system.l2.UpgradeReq_miss_latency::total       236500                       # number of UpgradeReq miss cycles
system.l2.UpgradeReq_accesses::.switch_cpus.data          151                       # number of UpgradeReq accesses(hits+misses)
system.l2.UpgradeReq_accesses::total              151                       # number of UpgradeReq accesses(hits+misses)
system.l2.UpgradeReq_miss_rate::.switch_cpus.data     0.264901                       # miss rate for UpgradeReq accesses
system.l2.UpgradeReq_miss_rate::total        0.264901                       # miss rate for UpgradeReq accesses
system.l2.UpgradeReq_avg_miss_latency::.switch_cpus.data  5912.500000                       # average UpgradeReq miss latency
system.l2.UpgradeReq_avg_miss_latency::total  5912.500000                       # average UpgradeReq miss latency
system.l2.UpgradeReq_mshr_misses::.switch_cpus.data           40                       # number of UpgradeReq MSHR misses
system.l2.UpgradeReq_mshr_misses::total            40                       # number of UpgradeReq MSHR misses
system.l2.UpgradeReq_mshr_miss_latency::.switch_cpus.data       786500                       # number of UpgradeReq MSHR miss cycles
system.l2.UpgradeReq_mshr_miss_latency::total       786500                       # number of UpgradeReq MSHR miss cycles
system.l2.UpgradeReq_mshr_miss_rate::.switch_cpus.data     0.264901                       # mshr miss rate for UpgradeReq accesses
system.l2.UpgradeReq_mshr_miss_rate::total     0.264901                       # mshr miss rate for UpgradeReq accesses
system.l2.UpgradeReq_avg_mshr_miss_latency::.switch_cpus.data 19662.500000                       # average UpgradeReq mshr miss latency
system.l2.UpgradeReq_avg_mshr_miss_latency::total 19662.500000                       # average UpgradeReq mshr miss latency
system.l2.ReadExReq_hits::.switch_cpus.data        55093                       # number of ReadExReq hits
system.l2.ReadExReq_hits::total                 55093                       # number of ReadExReq hits
[...]
system.cpu.itb_walker_cache.blocked_cycles::no_mshrs            0                       # number of cycles access was blocked
system.cpu.itb_walker_cache.blocked_cycles::no_targets            0                       # number of cycles access was blocked
system.cpu.itb_walker_cache.blocked::no_mshrs            0                       # number of cycles access was blocked
system.cpu.itb_walker_cache.blocked::no_targets            0                       # number of cycles access was blocked
system.cpu.itb_walker_cache.avg_blocked_cycles::no_mshrs          nan                       # average number of cycles each access was blocked
system.cpu.itb_walker_cache.avg_blocked_cycles::no_targets          nan                       # average number of cycles each access was blocked
system.cpu.itb_walker_cache.replacements            0                       # number of replacements
system.cpu.itb_walker_cache.power_state.pwrStateResidencyTicks::UNDEFINED 101127356000                       # Cumulative time (in ticks) in various power states
system.cpu.itb_walker_cache.tags.tagsinuse            0                       # Cycle average of tags in use
system.cpu.itb_walker_cache.tags.total_refs            0                       # Total number of references to valid blocks.
system.cpu.itb_walker_cache.tags.sampled_refs            0                       # Sample count of references to valid blocks.
system.cpu.itb_walker_cache.tags.avg_refs          nan                       # Average number of references to valid blocks.
system.cpu.itb_walker_cache.tags.warmup_cycle            0                       # Cycle when the warmup percentage was hit.
system.cpu.itb_walker_cache.tags.tag_accesses            0                       # Number of tag accesses
system.cpu.itb_walker_cache.tags.data_accesses            0                       # Number of data accesses
system.cpu.itb_walker_cache.tags.power_state.pwrStateResidencyTicks::UNDEFINED 101127356000                       # Cumulative time (in ticks) in various power states
system.cpu.itb.walker.power_state.pwrStateResidencyTicks::UNDEFINED 101127356000                       # Cumulative time (in ticks) in various power states
system.cpu.dtb_walker_cache.blocked_cycles::no_mshrs            0                       # number of cycles access was blocked
system.cpu.dtb_walker_cache.blocked_cycles::no_targets            0                       # number of cycles access was blocked
system.cpu.dtb_walker_cache.blocked::no_mshrs            0                       # number of cycles access was blocked
system.cpu.dtb_walker_cache.blocked::no_targets            0                       # number of cycles access was blocked
system.cpu.dtb_walker_cache.avg_blocked_cycles::no_mshrs          nan                       # average number of cycles each access was blocked
system.cpu.dtb_walker_cache.avg_blocked_cycles::no_targets          nan                       # average number of cycles each access was blocked
system.cpu.dtb_walker_cache.replacements            0                       # number of replacements
system.cpu.dtb_walker_cache.power_state.pwrStateResidencyTicks::UNDEFINED 101127356000                       # Cumulative time (in ticks) in various power states
system.cpu.dtb_walker_cache.tags.tagsinuse            0                       # Cycle average of tags in use
system.cpu.dtb_walker_cache.tags.total_refs            0                       # Total number of references to valid blocks.
system.cpu.dtb_walker_cache.tags.sampled_refs            0                       # Sample count of references to valid blocks.
system.cpu.dtb_walker_cache.tags.avg_refs          nan                       # Average number of references to valid blocks.
system.cpu.dtb_walker_cache.tags.warmup_cycle            0                       # Cycle when the warmup percentage was hit.
system.cpu.dtb_walker_cache.tags.tag_accesses            0                       # Number of tag accesses
system.cpu.dtb_walker_cache.tags.data_accesses            0                       # Number of data accesses
system.cpu.dtb_walker_cache.tags.power_state.pwrStateResidencyTicks::UNDEFINED 101127356000                       # Cumulative time (in ticks) in various power states
system.cpu.dcache.demand_hits::.cpu.data            6                       # number of demand (read+write) hits
system.cpu.dcache.demand_hits::.switch_cpus.data      8934736                       # number of demand (read+write) hits
system.cpu.dcache.demand_hits::total          8934742                       # number of demand (read+write) hits
system.cpu.dcache.overall_hits::.cpu.data            6                       # number of overall hits
system.cpu.dcache.overall_hits::.switch_cpus.data      8934736                       # number of overall hits
system.cpu.dcache.overall_hits::total         8934742                       # number of overall hits
system.cpu.dcache.demand_misses::.cpu.data            1                       # number of demand (read+write) misses
system.cpu.dcache.demand_misses::.switch_cpus.data      1996844                       # number of demand (read+write) misses
system.cpu.dcache.demand_misses::total        1996845                       # number of demand (read+write) misses
system.cpu.dcache.overall_misses::.cpu.data            1                       # number of overall misses
system.cpu.dcache.overall_misses::.switch_cpus.data      1996844                       # number of overall misses
system.cpu.dcache.overall_misses::total       1996845                       # number of overall misses
system.cpu.dcache.demand_miss_latency::.switch_cpus.data 113081332403                       # number of demand (read+write) miss cycles
system.cpu.dcache.demand_miss_latency::total 113081332403                       # number of demand (read+write) miss cycles
system.cpu.dcache.overall_miss_latency::.switch_cpus.data 113081332403                       # number of overall miss cycles
system.cpu.dcache.overall_miss_latency::total 113081332403                       # number of overall miss cycles
system.cpu.dcache.demand_accesses::.cpu.data            7                       # number of demand (read+write) accesses
system.cpu.dcache.demand_accesses::.switch_cpus.data     10931580                       # number of demand (read+write) accesses
system.cpu.dcache.demand_accesses::total     10931587                       # number of demand (read+write) accesses
system.cpu.dcache.overall_accesses::.cpu.data            7                       # number of overall (read+write) accesses
system.cpu.dcache.overall_accesses::.switch_cpus.data     10931580                       # number of overall (read+write) accesses
system.cpu.dcache.overall_accesses::total     10931587                       # number of overall (read+write) accesses
system.cpu.dcache.demand_miss_rate::.cpu.data     0.142857                       # miss rate for demand accesses
system.cpu.dcache.demand_miss_rate::.switch_cpus.data     0.182667                       # miss rate for demand accesses
system.cpu.dcache.demand_miss_rate::total     0.182667                       # miss rate for demand accesses
system.cpu.dcache.overall_miss_rate::.cpu.data     0.142857                       # miss rate for overall accesses
system.cpu.dcache.overall_miss_rate::.switch_cpus.data     0.182667                       # miss rate for overall accesses
system.cpu.dcache.overall_miss_rate::total     0.182667                       # miss rate for overall accesses
system.cpu.dcache.demand_avg_miss_latency::.switch_cpus.data 56630.028386                       # average overall miss latency
system.cpu.dcache.demand_avg_miss_latency::total 56630.000027                       # average overall miss latency
system.cpu.dcache.overall_avg_miss_latency::.switch_cpus.data 56630.028386                       # average overall miss latency
system.cpu.dcache.overall_avg_miss_latency::total 56630.000027                       # average overall miss latency
system.cpu.dcache.blocked_cycles::no_mshrs      4636042                       # number of cycles access was blocked
system.cpu.dcache.blocked_cycles::no_targets       549413                       # number of cycles access was blocked
system.cpu.dcache.blocked::no_mshrs            131720                       # number of cycles access was blocked
system.cpu.dcache.blocked::no_targets            3873                       # number of cycles access was blocked
system.cpu.dcache.avg_blocked_cycles::no_mshrs    35.196189                       # average number of cycles each access was blocked
system.cpu.dcache.avg_blocked_cycles::no_targets   141.857217                       # average number of cycles each access was blocked
system.cpu.dcache.writebacks::.writebacks       527673                       # number of writebacks
system.cpu.dcache.writebacks::total            527673                       # number of writebacks
system.cpu.dcache.demand_mshr_hits::.switch_cpus.data       621723                       # number of demand (read+write) MSHR hits
system.cpu.dcache.demand_mshr_hits::total       621723                       # number of demand (read+write) MSHR hits
system.cpu.dcache.overall_mshr_hits::.switch_cpus.data       621723                       # number of overall MSHR hits
system.cpu.dcache.overall_mshr_hits::total       621723                       # number of overall MSHR hits
system.cpu.dcache.demand_mshr_misses::.switch_cpus.data      1375121                       # number of demand (read+write) MSHR misses
system.cpu.dcache.demand_mshr_misses::total      1375121                       # number of demand (read+write) MSHR misses
system.cpu.dcache.overall_mshr_misses::.switch_cpus.data      1375121                       # number of overall MSHR misses
system.cpu.dcache.overall_mshr_misses::total      1375121                       # number of overall MSHR misses
system.cpu.dcache.demand_mshr_miss_latency::.switch_cpus.data  78814748995                       # number of demand (read+write) MSHR miss cycles
system.cpu.dcache.demand_mshr_miss_latency::total  78814748995                       # number of demand (read+write) MSHR miss cycles
system.cpu.dcache.overall_mshr_miss_latency::.switch_cpus.data  78814748995                       # number of overall MSHR miss cycles
system.cpu.dcache.overall_mshr_miss_latency::total  78814748995                       # number of overall MSHR miss cycles
system.cpu.dcache.demand_mshr_miss_rate::.switch_cpus.data     0.125793                       # mshr miss rate for demand accesses
system.cpu.dcache.demand_mshr_miss_rate::total     0.125793                       # mshr miss rate for demand accesses
system.cpu.dcache.overall_mshr_miss_rate::.switch_cpus.data     0.125793                       # mshr miss rate for overall accesses
system.cpu.dcache.overall_mshr_miss_rate::total     0.125793                       # mshr miss rate for overall accesses
system.cpu.dcache.demand_avg_mshr_miss_latency::.switch_cpus.data 57314.773751                       # average overall mshr miss latency
system.cpu.dcache.demand_avg_mshr_miss_latency::total 57314.773751                       # average overall mshr miss latency
system.cpu.dcache.overall_avg_mshr_miss_latency::.switch_cpus.data 57314.773751                       # average overall mshr miss latency
system.cpu.dcache.overall_avg_mshr_miss_latency::total 57314.773751                       # average overall mshr miss latency
system.cpu.dcache.replacements                1374511                       # number of replacements
system.cpu.dcache.ReadReq_hits::.switch_cpus.data      6148188                       # number of ReadReq hits
system.cpu.dcache.ReadReq_hits::total         6148188                       # number of ReadReq hits
system.cpu.dcache.ReadReq_misses::.switch_cpus.data      1779355                       # number of ReadReq misses
system.cpu.dcache.ReadReq_misses::total       1779355                       # number of ReadReq misses
system.cpu.dcache.ReadReq_miss_latency::.switch_cpus.data 103349753000                       # number of ReadReq miss cycles
system.cpu.dcache.ReadReq_miss_latency::total 103349753000                       # number of ReadReq miss cycles
system.cpu.dcache.ReadReq_accesses::.switch_cpus.data      7927543                       # number of ReadReq accesses(hits+misses)
system.cpu.dcache.ReadReq_accesses::total      7927543                       # number of ReadReq accesses(hits+misses)
system.cpu.dcache.ReadReq_miss_rate::.switch_cpus.data     0.224452                       # miss rate for ReadReq accesses
system.cpu.dcache.ReadReq_miss_rate::total     0.224452                       # miss rate for ReadReq accesses
system.cpu.dcache.ReadReq_avg_miss_latency::.switch_cpus.data 58082.705812                       # average ReadReq miss latency
system.cpu.dcache.ReadReq_avg_miss_latency::total 58082.705812                       # average ReadReq miss latency
system.cpu.dcache.ReadReq_mshr_hits::.switch_cpus.data       617124                       # number of ReadReq MSHR hits
system.cpu.dcache.ReadReq_mshr_hits::total       617124                       # number of ReadReq MSHR hits
system.cpu.dcache.ReadReq_mshr_misses::.switch_cpus.data      1162231                       # number of ReadReq MSHR misses
system.cpu.dcache.ReadReq_mshr_misses::total      1162231                       # number of ReadReq MSHR misses
system.cpu.dcache.ReadReq_mshr_miss_latency::.switch_cpus.data  69475734500                       # number of ReadReq MSHR miss cycles
system.cpu.dcache.ReadReq_mshr_miss_latency::total  69475734500                       # number of ReadReq MSHR miss cycles
system.cpu.dcache.ReadReq_mshr_miss_rate::.switch_cpus.data     0.146607                       # mshr miss rate for ReadReq accesses
system.cpu.dcache.ReadReq_mshr_miss_rate::total     0.146607                       # mshr miss rate for ReadReq accesses
system.cpu.dcache.ReadReq_avg_mshr_miss_latency::.switch_cpus.data 59777.905167                       # average ReadReq mshr miss latency
system.cpu.dcache.ReadReq_avg_mshr_miss_latency::total 59777.905167                       # average ReadReq mshr miss latency
system.cpu.dcache.WriteReq_hits::.cpu.data            6                       # number of WriteReq hits
system.cpu.dcache.WriteReq_hits::.switch_cpus.data      2786548                       # number of WriteReq hits
system.cpu.dcache.WriteReq_hits::total        2786554                       # number of WriteReq hits
system.cpu.dcache.WriteReq_misses::.cpu.data            1                       # number of WriteReq misses
system.cpu.dcache.WriteReq_misses::.switch_cpus.data       217489                       # number of WriteReq misses
system.cpu.dcache.WriteReq_misses::total       217490                       # number of WriteReq misses
system.cpu.dcache.WriteReq_miss_latency::.switch_cpus.data   9731579403                       # number of WriteReq miss cycles
system.cpu.dcache.WriteReq_miss_latency::total   9731579403                       # number of WriteReq miss cycles
system.cpu.dcache.WriteReq_accesses::.cpu.data            7                       # number of WriteReq accesses(hits+misses)
system.cpu.dcache.WriteReq_accesses::.switch_cpus.data      3004037                       # number of WriteReq accesses(hits+misses)
system.cpu.dcache.WriteReq_accesses::total      3004044                       # number of WriteReq accesses(hits+misses)
system.cpu.dcache.WriteReq_miss_rate::.cpu.data     0.142857                       # miss rate for WriteReq accesses
system.cpu.dcache.WriteReq_miss_rate::.switch_cpus.data     0.072399                       # miss rate for WriteReq accesses
system.cpu.dcache.WriteReq_miss_rate::total     0.072399                       # miss rate for WriteReq accesses
system.cpu.dcache.WriteReq_avg_miss_latency::.switch_cpus.data 44745.156780                       # average WriteReq miss latency
system.cpu.dcache.WriteReq_avg_miss_latency::total 44744.951046                       # average WriteReq miss latency
system.cpu.dcache.WriteReq_mshr_hits::.switch_cpus.data         4599                       # number of WriteReq MSHR hits
system.cpu.dcache.WriteReq_mshr_hits::total         4599                       # number of WriteReq MSHR hits
system.cpu.dcache.WriteReq_mshr_misses::.switch_cpus.data       212890                       # number of WriteReq MSHR misses
system.cpu.dcache.WriteReq_mshr_misses::total       212890                       # number of WriteReq MSHR misses
system.cpu.dcache.WriteReq_mshr_miss_latency::.switch_cpus.data   9339014495                       # number of WriteReq MSHR miss cycles
system.cpu.dcache.WriteReq_mshr_miss_latency::total   9339014495                       # number of WriteReq MSHR miss cycles
system.cpu.dcache.WriteReq_mshr_miss_rate::.switch_cpus.data     0.070868                       # mshr miss rate for WriteReq accesses
system.cpu.dcache.WriteReq_mshr_miss_rate::total     0.070868                       # mshr miss rate for WriteReq accesses
system.cpu.dcache.WriteReq_avg_mshr_miss_latency::.switch_cpus.data 43867.793203                       # average WriteReq mshr miss latency
system.cpu.dcache.WriteReq_avg_mshr_miss_latency::total 43867.793203                       # average WriteReq mshr miss latency
system.cpu.dcache.power_state.pwrStateResidencyTicks::UNDEFINED 101127356000                       # Cumulative time (in ticks) in various power states
system.cpu.dcache.tags.tagsinuse            63.998489                       # Cycle average of tags in use
system.cpu.dcache.tags.total_refs            10309931                       # Total number of references to valid blocks.
system.cpu.dcache.tags.sampled_refs           1374575                       # Sample count of references to valid blocks.
system.cpu.dcache.tags.avg_refs              7.500450                       # Average number of references to valid blocks.
system.cpu.dcache.tags.warmup_cycle              1500                       # Cycle when the warmup percentage was hit.
system.cpu.dcache.tags.occ_blocks::.cpu.data     0.000061                       # Average occupied blocks per requestor
system.cpu.dcache.tags.occ_blocks::.switch_cpus.data    63.998429                       # Average occupied blocks per requestor
system.cpu.dcache.tags.occ_percent::.cpu.data     0.000001                       # Average percentage of cache occupancy
system.cpu.dcache.tags.occ_percent::.switch_cpus.data     0.999975                       # Average percentage of cache occupancy
system.cpu.dcache.tags.occ_percent::total     0.999976                       # Average percentage of cache occupancy
system.cpu.dcache.tags.occ_task_id_blocks::1024           64                       # Occupied blocks per task id
system.cpu.dcache.tags.age_task_id_blocks_1024::0           41                       # Occupied blocks per task id
system.cpu.dcache.tags.age_task_id_blocks_1024::1           23                       # Occupied blocks per task id
system.cpu.dcache.tags.occ_task_id_percent::1024            1                       # Percentage of cache occupancy per task id
system.cpu.dcache.tags.tag_accesses          23237749                       # Number of tag accesses
system.cpu.dcache.tags.data_accesses         23237749                       # Number of data accesses
system.cpu.dcache.tags.power_state.pwrStateResidencyTicks::UNDEFINED 101127356000                       # Cumulative time (in ticks) in various power states
system.cpu.power_state.numTransitions               1                       # Number of power state transitions
system.cpu.power_state.pwrStateResidencyTicks::ON        10500                       # Cumulative time (in ticks) in various power states
system.cpu.power_state.pwrStateResidencyTicks::OFF 101127345500                       # Cumulative time (in ticks) in various power states

---------- End Simulation Statistics   ----------
