
---------- Begin Simulation Statistics ----------
final_tick                                 6934365500                       # Number of ticks from beginning of simulation (restored from checkpoints and never reset)
host_inst_rate                                 134399                       # Simulator instruction rate (inst/s)
host_mem_usage                                 863964                       # Number of bytes of host memory used
host_op_rate                                   237566                       # Simulator op (including micro ops) rate (op/s)
host_seconds                                    74.41                       # Real time elapsed on the host
host_tick_rate                               93197025                       # Simulator tick rate (ticks/s)
sim_freq                                 1000000000000                       # Frequency of simulated ticks
sim_insts                                    10000011                       # Number of instructions simulated
sim_ops                                      17676214                       # Number of ops (including micro ops) simulated
sim_seconds                                  0.006934                       # Number of seconds simulated
sim_ticks                                  6934365500                       # Number of ticks simulated
system.cpu.Branches                                 1                       # Number of branches fetched
system.cpu.committedInsts                          10                       # Number of instructions committed
system.cpu.committedOps                            21                       # Number of ops (including micro ops) committed
system.cpu.dtb.rdAccesses                           0                       # TLB accesses on read requests
system.cpu.dtb.rdMisses                             0                       # TLB misses on read requests
system.cpu.dtb.wrAccesses                           7                       # TLB accesses on write requests
system.cpu.dtb.wrMisses                             1                       # TLB misses on write requests
system.cpu.idle_fraction                            0                       # Percentage of idle cycles
system.cpu.itb.rdAccesses                           0                       # TLB accesses on read requests
system.cpu.itb.rdMisses                             0                       # TLB misses on read requests
system.cpu.itb.wrAccesses                          10                       # TLB accesses on write requests
system.cpu.itb.wrMisses                             0                       # TLB misses on write requests
system.cpu.not_idle_fraction                        1                       # Percentage of non-idle cycles
system.cpu.numCycles                               21                       # number of cpu cycles simulated
system.cpu.numWorkItemsCompleted                    0                       # number of work items this cpu completed
system.cpu.numWorkItemsStarted                      0                       # number of work items this cpu started
system.cpu.num_busy_cycles                         21                       # Number of busy cycles
system.cpu.num_cc_register_writes                   2                       # number of times the CC registers were written
system.cpu.num_conditional_control_insts            0                       # number of instructions that are conditional controls
system.cpu.num_fp_alu_accesses                      0                       # Number of float alu accesses
system.cpu.num_fp_insts                             0                       # number of float instructions
system.cpu.num_fp_register_reads                    0                       # number of times the floating registers were read
system.cpu.num_fp_register_writes                   0                       # number of times the floating registers were written
system.cpu.num_func_calls                           1                       # number of times a function call or return occured
system.cpu.num_idle_cycles                          0                       # Number of idle cycles
system.cpu.num_int_alu_accesses                    21                       # Number of integer alu accesses
system.cpu.num_int_insts                           21                       # number of integer instructions
system.cpu.num_int_register_reads                  47                       # number of times the integer registers were read
system.cpu.num_int_register_writes                 13                       # number of times the integer registers were written
system.cpu.num_load_insts                           0                       # Number of load instructions
system.cpu.num_mem_refs                             7                       # number of memory refs
system.cpu.num_store_insts                          7                       # Number of store instructions
system.cpu.num_vec_alu_accesses                     0                       # Number of vector alu accesses
system.cpu.num_vec_insts                            0                       # number of vector instructions
system.cpu.num_vec_register_reads                   0                       # number of times the vector registers were read
system.cpu.num_vec_register_writes                  0                       # number of times the vector registers were written
system.cpu.op_class::No_OpClass                     0      0.00%      0.00% # Class of executed instruction
system.cpu.op_class::IntAlu                        14     66.67%     66.67% # Class of executed instruction
system.cpu.op_class::IntMult                        0      0.00%     66.67% # Class of executed instruction
system.cpu.op_class::IntDiv                         0      0.00%     66.67% # Class of executed instruction
system.cpu.op_class::FloatAdd                       0      0.00%     66.67% # Class of executed instruction
system.cpu.op_class::FloatCmp                       0      0.00%     66.67% # Class of executed instruction
system.cpu.op_class::FloatCvt                       0      0.00%     66.67% # Class of executed instruction
system.cpu.op_class::FloatMult                      0      0.00%     66.67% # Class of executed instruction
system.cpu.op_class::FloatMultAcc                   0      0.00%     66.67% # Class of executed instruction
system.cpu.op_class::FloatDiv                       0      0.00%     66.67% # Class of executed instruction
system.cpu.op_class::FloatMisc                      0      0.00%     66.67% # Class of executed instruction
system.cpu.op_class::FloatSqrt                      0      0.00%     66.67% # Class of executed instruction
system.cpu.op_class::SimdAdd                        0      0.00%     66.67% # Class of executed instruction
system.cpu.op_class::SimdAddAcc                     0      0.00%     66.67% # Class of executed instruction
system.cpu.op_class::SimdAlu                        0      0.00%     66.67% # Class of executed instruction
system.cpu.op_class::SimdCmp                        0      0.00%     66.67% # Class of executed instruction
system.cpu.op_class::SimdCvt                        0      0.00%     66.67% # Class of executed instruction
system.cpu.op_class::SimdMisc                       0      0.00%     66.67% # Class of executed instruction
system.cpu.op_class::SimdMult                       0      0.00%     66.67% # Class of executed instruction
system.cpu.op_class::SimdMultAcc                    0      0.00%     66.67% # Class of executed instruction
system.cpu.op_class::SimdShift                      0      0.00%     66.67% # Class of executed instruction
system.cpu.op_class::SimdShiftAcc                   0      0.00%     66.67% # Class of executed instruction
system.cpu.op_class::SimdDiv                        0      0.00%     66.67% # Class of executed instruction
system.cpu.op_class::SimdSqrt                       0      0.00%     66.67% # Class of executed instruction
system.cpu.op_class::SimdFloatAdd                   0      0.00%     66.67% # Class of executed instruction
system.cpu.op_class::SimdFloatAlu                   0      0.00%     66.67% # Class of executed instruction
system.cpu.op_class::SimdFloatCmp                   0      0.00%     66.67% # Class of executed instruction
system.cpu.op_class::SimdFloatCvt                   0      0.00%     66.67% # Class of executed instruction
system.cpu.op_class::SimdFloatDiv                   0      0.00%     66.67% # Class of executed instruction
system.cpu.op_class::SimdFloatMisc                  0      0.00%     66.67% # Class of executed instruction
system.cpu.op_class::SimdFloatMult                  0      0.00%     66.67% # Class of executed instruction
system.cpu.op_class::SimdFloatMultAcc               0      0.00%     66.67% # Class of executed instruction
system.cpu.op_class::SimdFloatSqrt                  0      0.00%     66.67% # Class of executed instruction
system.cpu.op_class::SimdReduceAdd                  0      0.00%     66.67% # Class of executed instruction
system.cpu.op_class::SimdReduceAlu                  0      0.00%     66.67% # Class of executed instruction
system.cpu.op_class::SimdReduceCmp                  0      0.00%     66.67% # Class of executed instruction
system.cpu.op_class::SimdFloatReduceAdd             0      0.00%     66.67% # Class of executed instruction
system.cpu.op_class::SimdFloatReduceCmp             0      0.00%     66.67% # Class of executed instruction
system.cpu.op_class::SimdAes                        0      0.00%     66.67% # Class of executed instruction
system.cpu.op_class::SimdAesMix                     0      0.00%     66.67% # Class of executed instruction
system.cpu.op_class::SimdSha1Hash                   0      0.00%     66.67% # Class of executed instruction
system.cpu.op_class::SimdSha1Hash2                  0      0.00%     66.67% # Class of executed instruction
system.cpu.op_class::SimdSha256Hash                 0      0.00%     66.67% # Class of executed instruction
system.cpu.op_class::SimdSha256Hash2                0      0.00%     66.67% # Class of executed instruction
system.cpu.op_class::SimdShaSigma2                  0      0.00%     66.67% # Class of executed instruction
system.cpu.op_class::SimdShaSigma3                  0      0.00%     66.67% # Class of executed instruction
system.cpu.op_class::SimdPredAlu                    0      0.00%     66.67% # Class of executed instruction
system.cpu.op_class::MemRead                        0      0.00%     66.67% # Class of executed instruction
system.cpu.op_class::MemWrite                       7     33.33%    100.00% # Class of executed instruction
system.cpu.op_class::FloatMemRead                   0      0.00%    100.00% # Class of executed instruction
system.cpu.op_class::FloatMemWrite                  0      0.00%    100.00% # Class of executed instruction
system.cpu.op_class::IprAccess                      0      0.00%    100.00% # Class of executed instruction
system.cpu.op_class::InstPrefetch                   0      0.00%    100.00% # Class of executed instruction
system.cpu.op_class::total                         21                       # Class of executed instruction
system.cpu.workload.numSyscalls                    39                       # Number of system calls
system.membus.snoop_filter.hit_multi_requests            0                       # Number of requests hitting in the snoop filter with multiple (>1) holders of the requested data.
system.membus.snoop_filter.hit_multi_snoops            0                       # Number of snoops hitting in the snoop filter with multiple (>1) holders of the requested data.
system.membus.snoop_filter.hit_single_requests       146946                       # Number of requests hitting in the snoop filter with a single holder of the requested data.
system.membus.snoop_filter.hit_single_snoops            0                       # Number of snoops hitting in the snoop filter with a single holder of the requested data.
system.membus.snoop_filter.tot_requests        294223                       # Total number of requests made to the snoop filter.
system.membus.snoop_filter.tot_snoops               0                       # Total number of snoops made to the snoop filter.
system.switch_cpus.branchPred.BTBCorrect            0                       # Number of correct BTB predictions (this stat may not work properly.
system.switch_cpus.branchPred.BTBHitPct           nan                       # BTB Hit Percentage
system.switch_cpus.branchPred.BTBHits               0                       # Number of BTB hits
system.switch_cpus.branchPred.BTBLookups            0                       # Number of BTB lookups
system.switch_cpus.branchPred.RASInCorrect           10                       # Number of incorrect RAS predictions.
system.switch_cpus.branchPred.condIncorrect        12585                       # Number of conditional branches incorrect
system.switch_cpus.branchPred.condPredicted      1703139                       # Number of conditional branches predicted
system.switch_cpus.branchPred.indirectHits      1494996                       # Number of indirect target hits.
system.switch_cpus.branchPred.indirectLookups      1521154                       # Number of indirect predictor lookups.
system.switch_cpus.branchPred.indirectMisses        26158                       # Number of indirect misses.
system.switch_cpus.branchPred.lookups         1745140                       # Number of BP lookups
system.switch_cpus.branchPred.usedRAS           20526                       # Number of times the RAS was used to get a target.
system.switch_cpus.branchPredindirectMispredicted         6626                       # Number of mispredicted indirect branches.
system.switch_cpus.cc_regfile_reads           9431382                       # number of cc regfile reads
system.switch_cpus.cc_regfile_writes         10848499                       # number of cc regfile writes
system.switch_cpus.commit.amos                      0                       # Number of atomic instructions committed
system.switch_cpus.commit.branchMispredicts        13168                       # The number of times a branch was mispredicted
system.switch_cpus.commit.branches            1659082                       # Number of branches committed
system.switch_cpus.commit.bw_lim_events       1833611                       # number cycles where commit BW limit reached
system.switch_cpus.commit.commitNonSpecStalls          282                       # The number of times commit has been forced to stall to communicate backwards
system.switch_cpus.commit.commitSquashedInsts       463526                       # The number of squashed insts skipped by commit
system.switch_cpus.commit.committedInsts     10000001                       # Number of instructions committed
system.switch_cpus.commit.committedOps       17676193                       # Number of ops (including micro ops) committed
system.switch_cpus.commit.committed_per_cycle::samples     13578786                       # Number of insts commited each cycle
system.switch_cpus.commit.committed_per_cycle::mean     1.301751                       # Number of insts commited each cycle
system.switch_cpus.commit.committed_per_cycle::stdev     2.813289                       # Number of insts commited each cycle
system.switch_cpus.commit.committed_per_cycle::underflows            0      0.00%      0.00% # Number of insts commited each cycle
system.switch_cpus.commit.committed_per_cycle::0     10722008     78.96%     78.96% # Number of insts commited each cycle
system.switch_cpus.commit.committed_per_cycle::1       391161      2.88%     81.84% # Number of insts commited each cycle
system.switch_cpus.commit.committed_per_cycle::2        74345      0.55%     82.39% # Number of insts commited each cycle
system.switch_cpus.commit.committed_per_cycle::3       288353      2.12%     84.51% # Number of insts commited each cycle
system.switch_cpus.commit.committed_per_cycle::4        42193      0.31%     84.82% # Number of insts commited each cycle
system.switch_cpus.commit.committed_per_cycle::5        36202      0.27%     85.09% # Number of insts commited each cycle
system.switch_cpus.commit.committed_per_cycle::6        83778      0.62%     85.71% # Number of insts commited each cycle
system.switch_cpus.commit.committed_per_cycle::7       107135      0.79%     86.50% # Number of insts commited each cycle
system.switch_cpus.commit.committed_per_cycle::8      1833611     13.50%    100.00% # Number of insts commited each cycle
system.switch_cpus.commit.committed_per_cycle::overflows            0      0.00%    100.00% # Number of insts commited each cycle
system.switch_cpus.commit.committed_per_cycle::min_value            0                       # Number of insts commited each cycle
system.switch_cpus.commit.committed_per_cycle::max_value            8                       # Number of insts commited each cycle
system.switch_cpus.commit.committed_per_cycle::total     13578786                       # Number of insts commited each cycle
system.switch_cpus.commit.fp_insts             476832                       # Number of committed floating point instructions.
system.switch_cpus.commit.function_calls        15588                       # Number of function calls committed.
system.switch_cpus.commit.int_insts          17313384                       # Number of committed integer instructions.
system.switch_cpus.commit.loads               2812035                       # Number of loads committed
system.switch_cpus.commit.membars                 120                       # Number of memory barriers committed
system.switch_cpus.commit.op_class_0::No_OpClass        11916      0.07%      0.07% # Class of committed instruction
system.switch_cpus.commit.op_class_0::IntAlu     14025791     79.35%     79.42% # Class of committed instruction
system.switch_cpus.commit.op_class_0::IntMult         6231      0.04%     79.45% # Class of committed instruction
system.switch_cpus.commit.op_class_0::IntDiv         1795      0.01%     79.46% # Class of committed instruction
system.switch_cpus.commit.op_class_0::FloatAdd       147622      0.84%     80.30% # Class of committed instruction
system.switch_cpus.commit.op_class_0::FloatCmp            0      0.00%     80.30% # Class of committed instruction
system.switch_cpus.commit.op_class_0::FloatCvt          112      0.00%     80.30% # Class of committed instruction
system.switch_cpus.commit.op_class_0::FloatMult            0      0.00%     80.30% # Class of committed instruction
system.switch_cpus.commit.op_class_0::FloatMultAcc            0      0.00%     80.30% # Class of committed instruction
system.switch_cpus.commit.op_class_0::FloatDiv            0      0.00%     80.30% # Class of committed instruction
system.switch_cpus.commit.op_class_0::FloatMisc            0      0.00%     80.30% # Class of committed instruction
system.switch_cpus.commit.op_class_0::FloatSqrt            0      0.00%     80.30% # Class of committed instruction
system.switch_cpus.commit.op_class_0::SimdAdd            0      0.00%     80.30% # Class of committed instruction
system.switch_cpus.commit.op_class_0::SimdAddAcc            0      0.00%     80.30% # Class of committed instruction
system.switch_cpus.commit.op_class_0::SimdAlu           14      0.00%     80.30% # Class of committed instruction
system.switch_cpus.commit.op_class_0::SimdCmp            0      0.00%     80.30% # Class of committed instruction
system.switch_cpus.commit.op_class_0::SimdCvt           62      0.00%     80.30% # Class of committed instruction
system.switch_cpus.commit.op_class_0::SimdMisc        16541      0.09%     80.39% # Class of committed instruction
system.switch_cpus.commit.op_class_0::SimdMult            0      0.00%     80.39% # Class of committed instruction
system.switch_cpus.commit.op_class_0::SimdMultAcc            0      0.00%     80.39% # Class of committed instruction
system.switch_cpus.commit.op_class_0::SimdShift            0      0.00%     80.39% # Class of committed instruction
system.switch_cpus.commit.op_class_0::SimdShiftAcc            0      0.00%     80.39% # Class of committed instruction
system.switch_cpus.commit.op_class_0::SimdDiv            0      0.00%     80.39% # Class of committed instruction
system.switch_cpus.commit.op_class_0::SimdSqrt            0      0.00%     80.39% # Class of committed instruction
system.switch_cpus.commit.op_class_0::SimdFloatAdd        28658      0.16%     80.55% # Class of committed instruction
system.switch_cpus.commit.op_class_0::SimdFloatAlu            0      0.00%     80.55% # Class of committed instruction
system.switch_cpus.commit.op_class_0::SimdFloatCmp            0      0.00%     80.55% # Class of committed instruction
system.switch_cpus.commit.op_class_0::SimdFloatCvt        34832      0.20%     80.75% # Class of committed instruction
system.switch_cpus.commit.op_class_0::SimdFloatDiv           22      0.00%     80.75% # Class of committed instruction
system.switch_cpus.commit.op_class_0::SimdFloatMisc            0      0.00%     80.75% # Class of committed instruction
system.switch_cpus.commit.op_class_0::SimdFloatMult        49128      0.28%     81.03% # Class of committed instruction
system.switch_cpus.commit.op_class_0::SimdFloatMultAcc            0      0.00%     81.03% # Class of committed instruction
system.switch_cpus.commit.op_class_0::SimdFloatSqrt            0      0.00%     81.03% # Class of committed instruction
system.switch_cpus.commit.op_class_0::SimdReduceAdd            0      0.00%     81.03% # Class of committed instruction
system.switch_cpus.commit.op_class_0::SimdReduceAlu            0      0.00%     81.03% # Class of committed instruction
system.switch_cpus.commit.op_class_0::SimdReduceCmp            0      0.00%     81.03% # Class of committed instruction
system.switch_cpus.commit.op_class_0::SimdFloatReduceAdd            0      0.00%     81.03% # Class of committed instruction
system.switch_cpus.commit.op_class_0::SimdFloatReduceCmp            0      0.00%     81.03% # Class of committed instruction
system.switch_cpus.commit.op_class_0::SimdAes            0      0.00%     81.03% # Class of committed instruction
system.switch_cpus.commit.op_class_0::SimdAesMix            0      0.00%     81.03% # Class of committed instruction
system.switch_cpus.commit.op_class_0::SimdSha1Hash            0      0.00%     81.03% # Class of committed instruction
system.switch_cpus.commit.op_class_0::SimdSha1Hash2            0      0.00%     81.03% # Class of committed instruction
system.switch_cpus.commit.op_class_0::SimdSha256Hash            0      0.00%     81.03% # Class of committed instruction
system.switch_cpus.commit.op_class_0::SimdSha256Hash2            0      0.00%     81.03% # Class of committed instruction
system.switch_cpus.commit.op_class_0::SimdShaSigma2            0      0.00%     81.03% # Class of committed instruction
system.switch_cpus.commit.op_class_0::SimdShaSigma3            0      0.00%     81.03% # Class of committed instruction
system.switch_cpus.commit.op_class_0::SimdPredAlu            0      0.00%     81.03% # Class of committed instruction
system.switch_cpus.commit.op_class_0::MemRead      2729798     15.44%     96.47% # Class of committed instruction
system.switch_cpus.commit.op_class_0::MemWrite       497576      2.81%     99.29% # Class of committed instruction
system.switch_cpus.commit.op_class_0::FloatMemRead        82237      0.47%     99.75% # Class of committed instruction
system.switch_cpus.commit.op_class_0::FloatMemWrite        43858      0.25%    100.00% # Class of committed instruction
system.switch_cpus.commit.op_class_0::IprAccess            0      0.00%    100.00% # Class of committed instruction
system.switch_cpus.commit.op_class_0::InstPrefetch            0      0.00%    100.00% # Class of committed instruction
system.switch_cpus.commit.op_class_0::total     17676193                       # Class of committed instruction
system.switch_cpus.commit.refs                3353469                       # Number of memory references committed
system.switch_cpus.commit.swp_count                 0                       # Number of s/w prefetches committed
system.switch_cpus.commit.vec_insts                 0                       # Number of committed Vector instructions.
system.switch_cpus.committedInsts            10000001                       # Number of Instructions Simulated
system.switch_cpus.committedOps              17676193                       # Number of Ops (including micro ops) Simulated
system.switch_cpus.cpi                       1.386871                       # CPI: Cycles Per Instruction
system.switch_cpus.cpi_total                 1.386871                       # CPI: Total CPI of All Threads
system.switch_cpus.decode.BlockedCycles       9754544                       # Number of cycles decode is blocked
system.switch_cpus.decode.DecodedInsts       18283710                       # Number of instructions handled by decode
system.switch_cpus.decode.IdleCycles          1060946                       # Number of cycles decode is idle
system.switch_cpus.decode.RunCycles           2343678                       # Number of cycles decode is running
system.switch_cpus.decode.SquashCycles          13437                       # Number of cycles decode is squashing
system.switch_cpus.decode.UnblockCycles        478425                       # Number of cycles decode is unblocking
system.switch_cpus.dtb.rdAccesses             2863941                       # TLB accesses on read requests
system.switch_cpus.dtb.rdMisses                  1825                       # TLB misses on read requests
system.switch_cpus.dtb.wrAccesses              553783                       # TLB accesses on write requests
system.switch_cpus.dtb.wrMisses                   585                       # TLB misses on write requests
system.switch_cpus.fetch.Branches             1745140                       # Number of branches that fetch encountered
system.switch_cpus.fetch.CacheLines           1350347                       # Number of cache lines fetched
system.switch_cpus.fetch.Cycles              12131769                       # Number of cycles fetch has run and was not squashing or blocked
system.switch_cpus.fetch.IcacheSquashes          4921                       # Number of outstanding Icache misses that were squashed
system.switch_cpus.fetch.IcacheWaitRetryStallCycles           33                       # Number of stall cycles due to full MSHR
system.switch_cpus.fetch.Insts               10396261                       # Number of instructions fetch has processed
system.switch_cpus.fetch.MiscStallCycles          648                       # Number of cycles fetch has spent waiting on interrupts, or bad addresses, or out of MSHRs
system.switch_cpus.fetch.PendingQuiesceStallCycles            7                       # Number of stall cycles due to pending quiesce instructions
system.switch_cpus.fetch.PendingTrapStallCycles         3955                       # Number of stall cycles due to pending traps
system.switch_cpus.fetch.SquashCycles           26874                       # Number of cycles fetch has spent squashing
system.switch_cpus.fetch.branchRate          0.125833                       # Number of branch fetches per cycle
system.switch_cpus.fetch.icacheStallCycles      1501183                       # Number of cycles fetch is stalled on an Icache miss
system.switch_cpus.fetch.predictedBranches      1515522                       # Number of branches that fetch has predicted taken
system.switch_cpus.fetch.rate                0.749620                       # Number of inst fetches per cycle
system.switch_cpus.fetch.rateDist::samples     13651032                       # Number of instructions fetched each cycle (Total)
system.switch_cpus.fetch.rateDist::mean      1.348713                       # Number of instructions fetched each cycle (Total)
system.switch_cpus.fetch.rateDist::stdev     2.654125                       # Number of instructions fetched each cycle (Total)
system.switch_cpus.fetch.rateDist::underflows            0      0.00%      0.00% # Number of instructions fetched each cycle (Total)
system.switch_cpus.fetch.rateDist::0         10357074     75.87%     75.87% # Number of instructions fetched each cycle (Total)
system.switch_cpus.fetch.rateDist::1           406675      2.98%     78.85% # Number of instructions fetched each cycle (Total)
system.switch_cpus.fetch.rateDist::2            80163      0.59%     79.44% # Number of instructions fetched each cycle (Total)
system.switch_cpus.fetch.rateDist::3            85999      0.63%     80.07% # Number of instructions fetched each cycle (Total)
system.switch_cpus.fetch.rateDist::4           138772      1.02%     81.08% # Number of instructions fetched each cycle (Total)
system.switch_cpus.fetch.rateDist::5          1002513      7.34%     88.43% # Number of instructions fetched each cycle (Total)
system.switch_cpus.fetch.rateDist::6           200409      1.47%     89.90% # Number of instructions fetched each cycle (Total)
system.switch_cpus.fetch.rateDist::7           219196      1.61%     91.50% # Number of instructions fetched each cycle (Total)
system.switch_cpus.fetch.rateDist::8          1160231      8.50%    100.00% # Number of instructions fetched each cycle (Total)
system.switch_cpus.fetch.rateDist::overflows            0      0.00%    100.00% # Number of instructions fetched each cycle (Total)
system.switch_cpus.fetch.rateDist::min_value            0                       # Number of instructions fetched each cycle (Total)
system.switch_cpus.fetch.rateDist::max_value            8                       # Number of instructions fetched each cycle (Total)
system.switch_cpus.fetch.rateDist::total     13651032                       # Number of instructions fetched each cycle (Total)
system.switch_cpus.fp_regfile_reads            529490                       # number of floating regfile reads
system.switch_cpus.fp_regfile_writes           416047                       # number of floating regfile writes
system.switch_cpus.idleCycles                  217678                       # Total number of cycles that the CPU has spent unscheduled due to idling
system.switch_cpus.iew.branchMispredicts        16098                       # Number of branch mispredicts detected at execute
system.switch_cpus.iew.exec_branches          1680562                       # Number of branches executed
system.switch_cpus.iew.exec_nop                     0                       # number of nop insts executed
system.switch_cpus.iew.exec_rate             1.296877                       # Inst execution rate
system.switch_cpus.iew.exec_refs              3427490                       # number of memory reference insts executed
system.switch_cpus.iew.exec_stores             553781                       # Number of stores executed
system.switch_cpus.iew.exec_swp                     0                       # number of swp insts executed
system.switch_cpus.iew.iewBlockCycles          741026                       # Number of cycles IEW is blocking
system.switch_cpus.iew.iewDispLoadInsts       2879263                       # Number of dispatched load instructions
system.switch_cpus.iew.iewDispNonSpecInsts          436                       # Number of dispatched non-speculative instructions
system.switch_cpus.iew.iewDispSquashedInsts         1089                       # Number of squashed instructions skipped by dispatch
system.switch_cpus.iew.iewDispStoreInsts       562796                       # Number of dispatched store instructions
system.switch_cpus.iew.iewDispatchedInsts     18140861                       # Number of instructions dispatched to IQ
system.switch_cpus.iew.iewExecLoadInsts       2873709                       # Number of load instructions executed
system.switch_cpus.iew.iewExecSquashedInsts        23305                       # Number of squashed instructions skipped in execute
system.switch_cpus.iew.iewExecutedInsts      17986015                       # Number of executed instructions
system.switch_cpus.iew.iewIQFullEvents          11838                       # Number of times the IQ has become full, causing a stall
system.switch_cpus.iew.iewIdleCycles                0                       # Number of cycles IEW is idle
system.switch_cpus.iew.iewLSQFullEvents         64581                       # Number of times the LSQ has become full, causing a stall
system.switch_cpus.iew.iewSquashCycles          13437                       # Number of cycles IEW is squashing
system.switch_cpus.iew.iewUnblockCycles         82546                       # Number of cycles IEW is unblocking
system.switch_cpus.iew.lsq.thread0.blockedLoads            0                       # Number of blocked loads due to partial load-store forwarding
system.switch_cpus.iew.lsq.thread0.cacheBlocked         2647                       # Number of times an access to memory failed due to the cache being blocked
system.switch_cpus.iew.lsq.thread0.forwLoads        62207                       # Number of loads that had data forwarded from stores
system.switch_cpus.iew.lsq.thread0.ignoredResponses          125                       # Number of memory responses ignored because the instruction is squashed
system.switch_cpus.iew.lsq.thread0.invAddrLoads            0                       # Number of loads ignored due to an invalid address
system.switch_cpus.iew.lsq.thread0.invAddrSwpfs            0                       # Number of software prefetches ignored due to an invalid address
system.switch_cpus.iew.lsq.thread0.memOrderViolation          181                       # Number of memory ordering violations
system.switch_cpus.iew.lsq.thread0.rescheduledLoads         8832                       # Number of loads that were rescheduled
system.switch_cpus.iew.lsq.thread0.squashedLoads        67203                       # Number of loads squashed
system.switch_cpus.iew.lsq.thread0.squashedStores        21362                       # Number of stores squashed
system.switch_cpus.iew.memOrderViolationEvents          181                       # Number of memory order violations
system.switch_cpus.iew.predictedNotTakenIncorrect        13567                       # Number of branches that were predicted not taken incorrectly
system.switch_cpus.iew.predictedTakenIncorrect         2531                       # Number of branches that were predicted taken incorrectly
system.switch_cpus.iew.wb_consumers          21116113                       # num instructions consuming a value
system.switch_cpus.iew.wb_count              17951027                       # cumulative count of insts written-back
system.switch_cpus.iew.wb_fanout             0.695453                       # average fanout of values written-back
system.switch_cpus.iew.wb_producers          14685273                       # num instructions producing a value
system.switch_cpus.iew.wb_rate               1.294354                       # insts written-back per cycle
system.switch_cpus.iew.wb_sent               17957611                       # cumulative count of insts sent to commit
system.switch_cpus.int_regfile_reads         26524790                       # number of integer regfile reads
system.switch_cpus.int_regfile_writes        15283957                       # number of integer regfile writes
system.switch_cpus.ipc                       0.721048                       # IPC: Instructions Per Cycle
system.switch_cpus.ipc_total                 0.721048                       # IPC: Total IPC of All Threads
system.switch_cpus.iq.FU_type_0::No_OpClass        16087      0.09%      0.09% # Type of FU issued
system.switch_cpus.iq.FU_type_0::IntAlu      14272043     79.25%     79.34% # Type of FU issued
system.switch_cpus.iq.FU_type_0::IntMult         6301      0.03%     79.37% # Type of FU issued
system.switch_cpus.iq.FU_type_0::IntDiv          1969      0.01%     79.38% # Type of FU issued
system.switch_cpus.iq.FU_type_0::FloatAdd       148667      0.83%     80.21% # Type of FU issued
system.switch_cpus.iq.FU_type_0::FloatCmp            0      0.00%     80.21% # Type of FU issued
system.switch_cpus.iq.FU_type_0::FloatCvt          126      0.00%     80.21% # Type of FU issued
system.switch_cpus.iq.FU_type_0::FloatMult            0      0.00%     80.21% # Type of FU issued
system.switch_cpus.iq.FU_type_0::FloatMultAcc            0      0.00%     80.21% # Type of FU issued
system.switch_cpus.iq.FU_type_0::FloatDiv            0      0.00%     80.21% # Type of FU issued
system.switch_cpus.iq.FU_type_0::FloatMisc            0      0.00%     80.21% # Type of FU issued
system.switch_cpus.iq.FU_type_0::FloatSqrt            0      0.00%     80.21% # Type of FU issued
system.switch_cpus.iq.FU_type_0::SimdAdd            0      0.00%     80.21% # Type of FU issued
system.switch_cpus.iq.FU_type_0::SimdAddAcc            0      0.00%     80.21% # Type of FU issued
system.switch_cpus.iq.FU_type_0::SimdAlu          145      0.00%     80.21% # Type of FU issued
system.switch_cpus.iq.FU_type_0::SimdCmp            0      0.00%     80.21% # Type of FU issued
system.switch_cpus.iq.FU_type_0::SimdCvt           76      0.00%     80.21% # Type of FU issued
system.switch_cpus.iq.FU_type_0::SimdMisc        16573      0.09%     80.30% # Type of FU issued
system.switch_cpus.iq.FU_type_0::SimdMult            0      0.00%     80.30% # Type of FU issued
system.switch_cpus.iq.FU_type_0::SimdMultAcc            0      0.00%     80.30% # Type of FU issued
system.switch_cpus.iq.FU_type_0::SimdShift            0      0.00%     80.30% # Type of FU issued
system.switch_cpus.iq.FU_type_0::SimdShiftAcc            0      0.00%     80.30% # Type of FU issued
system.switch_cpus.iq.FU_type_0::SimdDiv            0      0.00%     80.30% # Type of FU issued
system.switch_cpus.iq.FU_type_0::SimdSqrt            0      0.00%     80.30% # Type of FU issued
system.switch_cpus.iq.FU_type_0::SimdFloatAdd        28694      0.16%     80.46% # Type of FU issued
system.switch_cpus.iq.FU_type_0::SimdFloatAlu            0      0.00%     80.46% # Type of FU issued
system.switch_cpus.iq.FU_type_0::SimdFloatCmp            0      0.00%     80.46% # Type of FU issued
system.switch_cpus.iq.FU_type_0::SimdFloatCvt        34865      0.19%     80.66% # Type of FU issued
system.switch_cpus.iq.FU_type_0::SimdFloatDiv           22      0.00%     80.66% # Type of FU issued
system.switch_cpus.iq.FU_type_0::SimdFloatMisc            0      0.00%     80.66% # Type of FU issued
system.switch_cpus.iq.FU_type_0::SimdFloatMult        49211      0.27%     80.93% # Type of FU issued
system.switch_cpus.iq.FU_type_0::SimdFloatMultAcc            0      0.00%     80.93% # Type of FU issued
system.switch_cpus.iq.FU_type_0::SimdFloatSqrt            0      0.00%     80.93% # Type of FU issued
system.switch_cpus.iq.FU_type_0::SimdReduceAdd            0      0.00%     80.93% # Type of FU issued
system.switch_cpus.iq.FU_type_0::SimdReduceAlu            0      0.00%     80.93% # Type of FU issued
system.switch_cpus.iq.FU_type_0::SimdReduceCmp            0      0.00%     80.93% # Type of FU issued
system.switch_cpus.iq.FU_type_0::SimdFloatReduceAdd            0      0.00%     80.93% # Type of FU issued
system.switch_cpus.iq.FU_type_0::SimdFloatReduceCmp            0      0.00%     80.93% # Type of FU issued
system.switch_cpus.iq.FU_type_0::SimdAes            0      0.00%     80.93% # Type of FU issued
system.switch_cpus.iq.FU_type_0::SimdAesMix            0      0.00%     80.93% # Type of FU issued
system.switch_cpus.iq.FU_type_0::SimdSha1Hash            0      0.00%     80.93% # Type of FU issued
system.switch_cpus.iq.FU_type_0::SimdSha1Hash2            0      0.00%     80.93% # Type of FU issued
system.switch_cpus.iq.FU_type_0::SimdSha256Hash            0      0.00%     80.93% # Type of FU issued
system.switch_cpus.iq.FU_type_0::SimdSha256Hash2            0      0.00%     80.93% # Type of FU issued
system.switch_cpus.iq.FU_type_0::SimdShaSigma2            0      0.00%     80.93% # Type of FU issued
system.switch_cpus.iq.FU_type_0::SimdShaSigma3            0      0.00%     80.93% # Type of FU issued
system.switch_cpus.iq.FU_type_0::SimdPredAlu            0      0.00%     80.93% # Type of FU issued
system.switch_cpus.iq.FU_type_0::MemRead      2787020     15.48%     96.40% # Type of FU issued
system.switch_cpus.iq.FU_type_0::MemWrite       511346      2.84%     99.24% # Type of FU issued
system.switch_cpus.iq.FU_type_0::FloatMemRead        91651      0.51%     99.75% # Type of FU issued
system.switch_cpus.iq.FU_type_0::FloatMemWrite        44526      0.25%    100.00% # Type of FU issued
system.switch_cpus.iq.FU_type_0::IprAccess            0      0.00%    100.00% # Type of FU issued
system.switch_cpus.iq.FU_type_0::InstPrefetch            0      0.00%    100.00% # Type of FU issued
system.switch_cpus.iq.FU_type_0::total       18009322                       # Type of FU issued
system.switch_cpus.iq.fp_alu_accesses          495797                       # Number of floating point alu accesses
system.switch_cpus.iq.fp_inst_queue_reads       984284                       # Number of floating instruction queue reads
system.switch_cpus.iq.fp_inst_queue_wakeup_accesses       478828                       # Number of floating instruction queue wakeup accesses
system.switch_cpus.iq.fp_inst_queue_writes       483550                       # Number of floating instruction queue writes
system.switch_cpus.iq.fu_busy_cnt              204734                       # FU busy when requested
system.switch_cpus.iq.fu_busy_rate           0.011368                       # FU busy rate (busy events/executed inst)
system.switch_cpus.iq.fu_full::No_OpClass            0      0.00%      0.00% # attempts to use FU when none available
system.switch_cpus.iq.fu_full::IntAlu          192632     94.09%     94.09% # attempts to use FU when none available
system.switch_cpus.iq.fu_full::IntMult              0      0.00%     94.09% # attempts to use FU when none available
system.switch_cpus.iq.fu_full::IntDiv               0      0.00%     94.09% # attempts to use FU when none available
system.switch_cpus.iq.fu_full::FloatAdd          4998      2.44%     96.53% # attempts to use FU when none available
system.switch_cpus.iq.fu_full::FloatCmp             0      0.00%     96.53% # attempts to use FU when none available
system.switch_cpus.iq.fu_full::FloatCvt             0      0.00%     96.53% # attempts to use FU when none available
system.switch_cpus.iq.fu_full::FloatMult            0      0.00%     96.53% # attempts to use FU when none available
system.switch_cpus.iq.fu_full::FloatMultAcc            0      0.00%     96.53% # attempts to use FU when none available
system.switch_cpus.iq.fu_full::FloatDiv             0      0.00%     96.53% # attempts to use FU when none available
system.switch_cpus.iq.fu_full::FloatMisc            0      0.00%     96.53% # attempts to use FU when none available
system.switch_cpus.iq.fu_full::FloatSqrt            0      0.00%     96.53% # attempts to use FU when none available
system.switch_cpus.iq.fu_full::SimdAdd              0      0.00%     96.53% # attempts to use FU when none available
system.switch_cpus.iq.fu_full::SimdAddAcc            0      0.00%     96.53% # attempts to use FU when none available
system.switch_cpus.iq.fu_full::SimdAlu              1      0.00%     96.53% # attempts to use FU when none available
system.switch_cpus.iq.fu_full::SimdCmp              0      0.00%     96.53% # attempts to use FU when none available
system.switch_cpus.iq.fu_full::SimdCvt              0      0.00%     96.53% # attempts to use FU when none available
system.switch_cpus.iq.fu_full::SimdMisc             7      0.00%     96.53% # attempts to use FU when none available
system.switch_cpus.iq.fu_full::SimdMult             0      0.00%     96.53% # attempts to use FU when none available
system.switch_cpus.iq.fu_full::SimdMultAcc            0      0.00%     96.53% # attempts to use FU when none available
system.switch_cpus.iq.fu_full::SimdShift            0      0.00%     96.53% # attempts to use FU when none available
system.switch_cpus.iq.fu_full::SimdShiftAcc            0      0.00%     96.53% # attempts to use FU when none available
system.switch_cpus.iq.fu_full::SimdDiv              0      0.00%     96.53% # attempts to use FU when none available
system.switch_cpus.iq.fu_full::SimdSqrt             0      0.00%     96.53% # attempts to use FU when none available
system.switch_cpus.iq.fu_full::SimdFloatAdd            0      0.00%     96.53% # attempts to use FU when none available
system.switch_cpus.iq.fu_full::SimdFloatAlu            0      0.00%     96.53% # attempts to use FU when none available
system.switch_cpus.iq.fu_full::SimdFloatCmp            0      0.00%     96.53% # attempts to use FU when none available
system.switch_cpus.iq.fu_full::SimdFloatCvt            0      0.00%     96.53% # attempts to use FU when none available
system.switch_cpus.iq.fu_full::SimdFloatDiv            0      0.00%     96.53% # attempts to use FU when none available
system.switch_cpus.iq.fu_full::SimdFloatMisc            0      0.00%     96.53% # attempts to use FU when none available
system.switch_cpus.iq.fu_full::SimdFloatMult         1628      0.80%     97.33% # attempts to use FU when none available
system.switch_cpus.iq.fu_full::SimdFloatMultAcc            0      0.00%     97.33% # attempts to use FU when none available
system.switch_cpus.iq.fu_full::SimdFloatSqrt            0      0.00%     97.33% # attempts to use FU when none available
system.switch_cpus.iq.fu_full::SimdReduceAdd            0      0.00%     97.33% # attempts to use FU when none available
system.switch_cpus.iq.fu_full::SimdReduceAlu            0      0.00%     97.33% # attempts to use FU when none available
system.switch_cpus.iq.fu_full::SimdReduceCmp            0      0.00%     97.33% # attempts to use FU when none available
system.switch_cpus.iq.fu_full::SimdFloatReduceAdd            0      0.00%     97.33% # attempts to use FU when none available
system.switch_cpus.iq.fu_full::SimdFloatReduceCmp            0      0.00%     97.33% # attempts to use FU when none available
system.switch_cpus.iq.fu_full::SimdAes              0      0.00%     97.33% # attempts to use FU when none available
system.switch_cpus.iq.fu_full::SimdAesMix            0      0.00%     97.33% # attempts to use FU when none available
system.switch_cpus.iq.fu_full::SimdSha1Hash            0      0.00%     97.33% # attempts to use FU when none available
system.switch_cpus.iq.fu_full::SimdSha1Hash2            0      0.00%     97.33% # attempts to use FU when none available
system.switch_cpus.iq.fu_full::SimdSha256Hash            0      0.00%     97.33% # attempts to use FU when none available
system.switch_cpus.iq.fu_full::SimdSha256Hash2            0      0.00%     97.33% # attempts to use FU when none available
system.switch_cpus.iq.fu_full::SimdShaSigma2            0      0.00%     97.33% # attempts to use FU when none available
system.switch_cpus.iq.fu_full::SimdShaSigma3            0      0.00%     97.33% # attempts to use FU when none available
system.switch_cpus.iq.fu_full::SimdPredAlu            0      0.00%     97.33% # attempts to use FU when none available
system.switch_cpus.iq.fu_full::MemRead           4223      2.06%     99.39% # attempts to use FU when none available
system.switch_cpus.iq.fu_full::MemWrite          1082      0.53%     99.92% # attempts to use FU when none available
system.switch_cpus.iq.fu_full::FloatMemRead           44      0.02%     99.94% # attempts to use FU when none available
system.switch_cpus.iq.fu_full::FloatMemWrite          119      0.06%    100.00% # attempts to use FU when none available
system.switch_cpus.iq.fu_full::IprAccess            0      0.00%    100.00% # attempts to use FU when none available
system.switch_cpus.iq.fu_full::InstPrefetch            0      0.00%    100.00% # attempts to use FU when none available
system.switch_cpus.iq.int_alu_accesses       17702172                       # Number of integer alu accesses
system.switch_cpus.iq.int_inst_queue_reads     48893275                       # Number of integer instruction queue reads
system.switch_cpus.iq.int_inst_queue_wakeup_accesses     17472199                       # Number of integer instruction queue wakeup accesses
system.switch_cpus.iq.int_inst_queue_writes     18121984                       # Number of integer instruction queue writes
system.switch_cpus.iq.iqInstsAdded           18139815                       # Number of instructions added to the IQ (excludes non-spec)
system.switch_cpus.iq.iqInstsIssued          18009322                       # Number of instructions issued
system.switch_cpus.iq.iqNonSpecInstsAdded         1046                       # Number of non-speculative instructions added to the IQ
system.switch_cpus.iq.iqSquashedInstsExamined       464512                       # Number of squashed instructions iterated over during squash; mainly for profiling
system.switch_cpus.iq.iqSquashedInstsIssued         3151                       # Number of squashed instructions issued
system.switch_cpus.iq.iqSquashedNonSpecRemoved          764                       # Number of squashed non-spec instructions that were removed
system.switch_cpus.iq.iqSquashedOperandsExamined       645339                       # Number of squashed operands that are examined and possibly removed from graph
system.switch_cpus.iq.issued_per_cycle::samples     13651032                       # Number of insts issued each cycle
system.switch_cpus.iq.issued_per_cycle::mean     1.319265                       # Number of insts issued each cycle
system.switch_cpus.iq.issued_per_cycle::stdev     2.143226                       # Number of insts issued each cycle
system.switch_cpus.iq.issued_per_cycle::underflows            0      0.00%      0.00% # Number of insts issued each cycle
system.switch_cpus.iq.issued_per_cycle::0      8684728     63.62%     63.62% # Number of insts issued each cycle
system.switch_cpus.iq.issued_per_cycle::1       893682      6.55%     70.17% # Number of insts issued each cycle
system.switch_cpus.iq.issued_per_cycle::2       843672      6.18%     76.35% # Number of insts issued each cycle
system.switch_cpus.iq.issued_per_cycle::3      1025494      7.51%     83.86% # Number of insts issued each cycle
system.switch_cpus.iq.issued_per_cycle::4       615791      4.51%     88.37% # Number of insts issued each cycle
system.switch_cpus.iq.issued_per_cycle::5       429346      3.15%     91.51% # Number of insts issued each cycle
system.switch_cpus.iq.issued_per_cycle::6       558442      4.09%     95.61% # Number of insts issued each cycle
system.switch_cpus.iq.issued_per_cycle::7       407748      2.99%     98.59% # Number of insts issued each cycle
system.switch_cpus.iq.issued_per_cycle::8       192129      1.41%    100.00% # Number of insts issued each cycle
system.switch_cpus.iq.issued_per_cycle::overflows            0      0.00%    100.00% # Number of insts issued each cycle
system.switch_cpus.iq.issued_per_cycle::min_value            0                       # Number of insts issued each cycle
system.switch_cpus.iq.issued_per_cycle::max_value            8                       # Number of insts issued each cycle
system.switch_cpus.iq.issued_per_cycle::total     13651032                       # Number of insts issued each cycle
system.switch_cpus.iq.rate                   1.298558                       # Inst issue rate
system.switch_cpus.iq.vec_alu_accesses              0                       # Number of vector alu accesses
system.switch_cpus.iq.vec_inst_queue_reads            0                       # Number of vector instruction queue reads
system.switch_cpus.iq.vec_inst_queue_wakeup_accesses            0                       # Number of vector instruction queue wakeup accesses
system.switch_cpus.iq.vec_inst_queue_writes            0                       # Number of vector instruction queue writes
system.switch_cpus.itb.rdAccesses                   0                       # TLB accesses on read requests
system.switch_cpus.itb.rdMisses                     0                       # TLB misses on read requests
system.switch_cpus.itb.wrAccesses             1350984                       # TLB accesses on write requests
system.switch_cpus.itb.wrMisses                   770                       # TLB misses on write requests
system.switch_cpus.memDep0.conflictingLoads        58658                       # Number of conflicting loads.
system.switch_cpus.memDep0.conflictingStores        30882                       # Number of conflicting stores.
system.switch_cpus.memDep0.insertedLoads      2879263                       # Number of loads inserted to the mem dependence unit.
system.switch_cpus.memDep0.insertedStores       562796                       # Number of stores inserted to the mem dependence unit.
system.switch_cpus.misc_regfile_reads         6810061                       # number of misc regfile reads
system.switch_cpus.misc_regfile_writes             64                       # number of misc regfile writes
system.switch_cpus.numCycles                 13868710                       # number of cpu cycles simulated
system.switch_cpus.numWorkItemsCompleted            0                       # number of work items this cpu completed
system.switch_cpus.numWorkItemsStarted              0                       # number of work items this cpu started
system.switch_cpus.rename.BlockCycles         5080539                       # Number of cycles rename is blocking
system.switch_cpus.rename.CommittedMaps      26230122                       # Number of HB maps that are committed
system.switch_cpus.rename.IQFullEvents         259461                       # Number of times rename has blocked due to IQ full
system.switch_cpus.rename.IdleCycles          1242345                       # Number of cycles rename is idle
system.switch_cpus.rename.LQFullEvents        2985482                       # Number of times rename has blocked due to LQ full
system.switch_cpus.rename.ROBFullEvents        828913                       # Number of times rename has blocked due to ROB full
system.switch_cpus.rename.RenameLookups      44074247                       # Number of register rename lookups that rename has made
system.switch_cpus.rename.RenamedInsts       18231322                       # Number of instructions processed by rename
system.switch_cpus.rename.RenamedOperands     26904743                       # Number of destination operands rename has renamed
system.switch_cpus.rename.RunCycles           2582223                       # Number of cycles rename is running
system.switch_cpus.rename.SQFullEvents        1077292                       # Number of times rename has blocked due to SQ full
system.switch_cpus.rename.SquashCycles          13437                       # Number of cycles rename is squashing
system.switch_cpus.rename.UnblockCycles       4726276                       # Number of cycles rename is unblocking
system.switch_cpus.rename.UndoneMaps           674359                       # Number of HB maps that are undone due to squashing
system.switch_cpus.rename.fp_rename_lookups       531200                       # Number of floating rename lookups
system.switch_cpus.rename.int_rename_lookups     26976092                       # Number of integer rename lookups
system.switch_cpus.rename.serializeStallCycles         6211                       # count of cycles rename stalled for serializing inst
system.switch_cpus.rename.serializingInsts          163                       # count of serializing insts renamed
system.switch_cpus.rename.skidInsts           2296223                       # count of insts added to the skid buffer
system.switch_cpus.rename.tempSerializingInsts          138                       # count of temporary serializing insts renamed
system.switch_cpus.rob.rob_reads             29883074                       # The number of ROB reads
system.switch_cpus.rob.rob_writes            36352762                       # The number of ROB writes
system.switch_cpus.timesIdled                    3063                       # Number of times that the entire CPU went into an idle state and unscheduled itself
system.tol2bus.snoop_filter.hit_multi_requests            6                       # Number of requests hitting in the snoop filter with multiple (>1) holders of the requested data.
system.tol2bus.snoop_filter.hit_multi_snoops            1                       # Number of snoops hitting in the snoop filter with multiple (>1) holders of the requested data.
system.tol2bus.snoop_filter.hit_single_requests       229056                       # Number of requests hitting in the snoop filter with a single holder of the requested data.
system.tol2bus.snoop_filter.hit_single_snoops       136293                       # Number of snoops hitting in the snoop filter with a single holder of the requested data.
system.tol2bus.snoop_filter.tot_requests       458244                       # Total number of requests made to the snoop filter.
system.tol2bus.snoop_filter.tot_snoops         136294                       # Total number of snoops made to the snoop filter.
system.membus.trans_dist::ReadResp             138714                       # Transaction distribution
system.membus.trans_dist::WritebackDirty        65576                       # Transaction distribution
system.membus.trans_dist::CleanEvict            81369                       # Transaction distribution
system.membus.trans_dist::ReadExReq              8564                       # Transaction distribution
system.membus.trans_dist::ReadExResp             8564                       # Transaction distribution
system.membus.trans_dist::ReadSharedReq        138714                       # Transaction distribution
system.membus.pkt_count_system.l2.mem_side::system.mem_ctrls.port       441501                       # Packet count per connected master and slave (bytes)
system.membus.pkt_count_system.l2.mem_side::total       441501                       # Packet count per connected master and slave (bytes)
system.membus.pkt_count::total                 441501                       # Packet count per connected master and slave (bytes)
system.membus.pkt_size_system.l2.mem_side::system.mem_ctrls.port     13622656                       # Cumulative packet size per connected master and slave (bytes)
system.membus.pkt_size_system.l2.mem_side::total     13622656                       # Cumulative packet size per connected master and slave (bytes)
system.membus.pkt_size::total                13622656                       # Cumulative packet size per connected master and slave (bytes)
system.membus.snoops                                0                       # Total snoops (count)
system.membus.snoopTraffic                          0                       # Total snoop traffic (bytes)
system.membus.snoop_fanout::samples            147278                       # Request fanout histogram
system.membus.snoop_fanout::mean                    0                       # Request fanout histogram
system.membus.snoop_fanout::stdev                   0                       # Request fanout histogram
system.membus.snoop_fanout::underflows              0      0.00%      0.00% # Request fanout histogram
system.membus.snoop_fanout::0                  147278    100.00%    100.00% # Request fanout histogram
system.membus.snoop_fanout::1                       0      0.00%    100.00% # Request fanout histogram
system.membus.snoop_fanout::overflows               0      0.00%    100.00% # Request fanout histogram
system.membus.snoop_fanout::min_value               0                       # Request fanout histogram
system.membus.snoop_fanout::max_value               0                       # Request fanout histogram
system.membus.snoop_fanout::total              147278                       # Request fanout histogram
system.membus.reqLayer2.occupancy           595159500                       # Layer occupancy (ticks)
system.membus.reqLayer2.utilization               8.6                       # Layer utilization (%)
system.membus.respLayer1.occupancy          771438000                       # Layer occupancy (ticks)
system.membus.respLayer1.utilization             11.1                       # Layer utilization (%)
system.membus.power_state.pwrStateResidencyTicks::UNDEFINED   6934365500                       # Cumulative time (in ticks) in various power states
system.switch_cpus.dtb.walker.power_state.pwrStateResidencyTicks::UNDEFINED   6934365500                       # Cumulative time (in ticks) in various power states
system.switch_cpus.itb.walker.power_state.pwrStateResidencyTicks::UNDEFINED   6934365500                       # Cumulative time (in ticks) in various power states
system.switch_cpus.power_state.pwrStateResidencyTicks::OFF   6934365500                       # Cumulative time (in ticks) in various power states
system.tol2bus.trans_dist::ReadResp            219113                       # Transaction distribution
system.tol2bus.trans_dist::WritebackDirty       203527                       # Transaction distribution
system.tol2bus.trans_dist::WritebackClean         5056                       # Transaction distribution
system.tol2bus.trans_dist::CleanEvict          233331                       # Transaction distribution
system.tol2bus.trans_dist::UpgradeReq               1                       # Transaction distribution
system.tol2bus.trans_dist::UpgradeResp              1                       # Transaction distribution
system.tol2bus.trans_dist::ReadExReq            10072                       # Transaction distribution
system.tol2bus.trans_dist::ReadExResp           10072                       # Transaction distribution
system.tol2bus.trans_dist::ReadCleanReq          5121                       # Transaction distribution
system.tol2bus.trans_dist::ReadSharedReq       213994                       # Transaction distribution
system.tol2bus.pkt_count_system.cpu.icache.mem_side::system.l2.cpu_side        15297                       # Packet count per connected master and slave (bytes)
system.tol2bus.pkt_count_system.cpu.dcache.mem_side::system.l2.cpu_side       672132                       # Packet count per connected master and slave (bytes)
system.tol2bus.pkt_count::total                687429                       # Packet count per connected master and slave (bytes)
system.tol2bus.pkt_size_system.cpu.icache.mem_side::system.l2.cpu_side       651264                       # Cumulative packet size per connected master and slave (bytes)
system.tol2bus.pkt_size_system.cpu.dcache.mem_side::system.l2.cpu_side     23168960                       # Cumulative packet size per connected master and slave (bytes)
system.tol2bus.pkt_size::total               23820224                       # Cumulative packet size per connected master and slave (bytes)
system.tol2bus.snoops                          212859                       # Total snoops (count)
system.tol2bus.snoopTraffic                   4196928                       # Total snoop traffic (bytes)
system.tol2bus.snoop_fanout::samples           442046                       # Request fanout histogram
system.tol2bus.snoop_fanout::mean            0.308341                       # Request fanout histogram
system.tol2bus.snoop_fanout::stdev           0.461814                       # Request fanout histogram
system.tol2bus.snoop_fanout::underflows             0      0.00%      0.00% # Request fanout histogram
system.tol2bus.snoop_fanout::0                 305746     69.17%     69.17% # Request fanout histogram
system.tol2bus.snoop_fanout::1                 136299     30.83%    100.00% # Request fanout histogram
system.tol2bus.snoop_fanout::2                      1      0.00%    100.00% # Request fanout histogram
system.tol2bus.snoop_fanout::3                      0      0.00%    100.00% # Request fanout histogram
system.tol2bus.snoop_fanout::4                      0      0.00%    100.00% # Request fanout histogram
system.tol2bus.snoop_fanout::overflows              0      0.00%    100.00% # Request fanout histogram
system.tol2bus.snoop_fanout::min_value              0                       # Request fanout histogram
system.tol2bus.snoop_fanout::max_value              2                       # Request fanout histogram
system.tol2bus.snoop_fanout::total             442046                       # Request fanout histogram
system.tol2bus.reqLayer0.occupancy          372127000                       # Layer occupancy (ticks)
system.tol2bus.reqLayer0.utilization              5.4                       # Layer utilization (%)
system.tol2bus.respLayer1.occupancy         336095496                       # Layer occupancy (ticks)
system.tol2bus.respLayer1.utilization             4.8                       # Layer utilization (%)
system.tol2bus.respLayer0.occupancy           7681993                       # Layer occupancy (ticks)
system.tol2bus.respLayer0.utilization             0.1                       # Layer utilization (%)
system.tol2bus.power_state.pwrStateResidencyTicks::UNDEFINED   6934365500                       # Cumulative time (in ticks) in various power states
system.voltage_domain.voltage                       1                       # Voltage in Volts
system.clk_domain.clock                          1000                       # Clock period in ticks
system.l2.demand_hits::.switch_cpus.inst         2288                       # number of demand (read+write) hits
system.l2.demand_hits::.switch_cpus.data        79617                       # number of demand (read+write) hits
system.l2.demand_hits::total                    81905                       # number of demand (read+write) hits
system.l2.overall_hits::.switch_cpus.inst         2288                       # number of overall hits
system.l2.overall_hits::.switch_cpus.data        79617                       # number of overall hits
system.l2.overall_hits::total                   81905                       # number of overall hits
system.l2.demand_misses::.cpu.inst                  2                       # number of demand (read+write) misses
system.l2.demand_misses::.cpu.data                  2                       # number of demand (read+write) misses
system.l2.demand_misses::.switch_cpus.inst         2830                       # number of demand (read+write) misses
system.l2.demand_misses::.switch_cpus.data       144447                       # number of demand (read+write) misses
system.l2.demand_misses::total                 147281                       # number of demand (read+write) misses
system.l2.overall_misses::.cpu.inst                 2                       # number of overall misses
system.l2.overall_misses::.cpu.data                 2                       # number of overall misses
system.l2.overall_misses::.switch_cpus.inst         2830                       # number of overall misses
system.l2.overall_misses::.switch_cpus.data       144447                       # number of overall misses
system.l2.overall_misses::total                147281                       # number of overall misses
system.l2.demand_miss_latency::.switch_cpus.inst    230716000                       # number of demand (read+write) miss cycles
system.l2.demand_miss_latency::.switch_cpus.data  11272709000                       # number of demand (read+write) miss cycles
system.l2.demand_miss_latency::total      11503425000                       # number of demand (read+write) miss cycles
system.l2.overall_miss_latency::.switch_cpus.inst    230716000                       # number of overall miss cycles
system.l2.overall_miss_latency::.switch_cpus.data  11272709000                       # number of overall miss cycles
system.l2.overall_miss_latency::total     11503425000                       # number of overall miss cycles
system.l2.demand_accesses::.cpu.inst                2                       # number of demand (read+write) accesses
system.l2.demand_accesses::.cpu.data                2                       # number of demand (read+write) accesses
system.l2.demand_accesses::.switch_cpus.inst         5118                       # number of demand (read+write) accesses
system.l2.demand_accesses::.switch_cpus.data       224064                       # number of demand (read+write) accesses
system.l2.demand_accesses::total               229186                       # number of demand (read+write) accesses
system.l2.overall_accesses::.cpu.inst               2                       # number of overall (read+write) accesses
system.l2.overall_accesses::.cpu.data               2                       # number of overall (read+write) accesses
system.l2.overall_accesses::.switch_cpus.inst         5118                       # number of overall (read+write) accesses
system.l2.overall_accesses::.switch_cpus.data       224064                       # number of overall (read+write) accesses
system.l2.overall_accesses::total              229186                       # number of overall (read+write) accesses
system.l2.demand_miss_rate::.cpu.inst               1                       # miss rate for demand accesses
system.l2.demand_miss_rate::.cpu.data               1                       # miss rate for demand accesses
system.l2.demand_miss_rate::.switch_cpus.inst     0.552950                       # miss rate for demand accesses
system.l2.demand_miss_rate::.switch_cpus.data     0.644668                       # miss rate for demand accesses
system.l2.demand_miss_rate::total            0.642627                       # miss rate for demand accesses
system.l2.overall_miss_rate::.cpu.inst              1                       # miss rate for overall accesses
system.l2.overall_miss_rate::.cpu.data              1                       # miss rate for overall accesses
system.l2.overall_miss_rate::.switch_cpus.inst     0.552950                       # miss rate for overall accesses
system.l2.overall_miss_rate::.switch_cpus.data     0.644668                       # miss rate for overall accesses
system.l2.overall_miss_rate::total           0.642627                       # miss rate for overall accesses
system.l2.demand_avg_miss_latency::.switch_cpus.inst 81525.088339                       # average overall miss latency
system.l2.demand_avg_miss_latency::.switch_cpus.data 78040.450823                       # average overall miss latency
system.l2.demand_avg_miss_latency::total 78105.288530                       # average overall miss latency
system.l2.overall_avg_miss_latency::.switch_cpus.inst 81525.088339                       # average overall miss latency
system.l2.overall_avg_miss_latency::.switch_cpus.data 78040.450823                       # average overall miss latency
system.l2.overall_avg_miss_latency::total 78105.288530                       # average overall miss latency
system.l2.blocked_cycles::no_mshrs                  0                       # number of cycles access was blocked
system.l2.blocked_cycles::no_targets                0                       # number of cycles access was blocked
system.l2.blocked::no_mshrs                         0                       # number of cycles access was blocked
system.l2.blocked::no_targets                       0                       # number of cycles access was blocked
system.l2.avg_blocked_cycles::no_mshrs            nan                       # average number of cycles each access was blocked
system.l2.avg_blocked_cycles::no_targets          nan                       # average number of cycles each access was blocked
system.l2.writebacks::.writebacks               65576                       # number of writebacks
system.l2.writebacks::total                     65576                       # number of writebacks
system.l2.demand_mshr_hits::.switch_cpus.inst            1                       # number of demand (read+write) MSHR hits
system.l2.demand_mshr_hits::.switch_cpus.data            1                       # number of demand (read+write) MSHR hits
system.l2.demand_mshr_hits::total                   2                       # number of demand (read+write) MSHR hits
system.l2.overall_mshr_hits::.switch_cpus.inst            1                       # number of overall MSHR hits
system.l2.overall_mshr_hits::.switch_cpus.data            1                       # number of overall MSHR hits
system.l2.overall_mshr_hits::total                  2                       # number of overall MSHR hits
system.l2.demand_mshr_misses::.switch_cpus.inst         2829                       # number of demand (read+write) MSHR misses
system.l2.demand_mshr_misses::.switch_cpus.data       144446                       # number of demand (read+write) MSHR misses
system.l2.demand_mshr_misses::total            147275                       # number of demand (read+write) MSHR misses
system.l2.overall_mshr_misses::.switch_cpus.inst         2829                       # number of overall MSHR misses
system.l2.overall_mshr_misses::.switch_cpus.data       144446                       # number of overall MSHR misses
system.l2.overall_mshr_misses::total           147275                       # number of overall MSHR misses
system.l2.demand_mshr_miss_latency::.switch_cpus.inst    202357500                       # number of demand (read+write) MSHR miss cycles
system.l2.demand_mshr_miss_latency::.switch_cpus.data   9828198500                       # number of demand (read+write) MSHR miss cycles
system.l2.demand_mshr_miss_latency::total  10030556000                       # number of demand (read+write) MSHR miss cycles
system.l2.overall_mshr_miss_latency::.switch_cpus.inst    202357500                       # number of overall MSHR miss cycles
system.l2.overall_mshr_miss_latency::.switch_cpus.data   9828198500                       # number of overall MSHR miss cycles
system.l2.overall_mshr_miss_latency::total  10030556000                       # number of overall MSHR miss cycles
system.l2.demand_mshr_miss_rate::.switch_cpus.inst     0.552755                       # mshr miss rate for demand accesses
system.l2.demand_mshr_miss_rate::.switch_cpus.data     0.644664                       # mshr miss rate for demand accesses
system.l2.demand_mshr_miss_rate::total       0.642600                       # mshr miss rate for demand accesses
system.l2.overall_mshr_miss_rate::.switch_cpus.inst     0.552755                       # mshr miss rate for overall accesses
system.l2.overall_mshr_miss_rate::.switch_cpus.data     0.644664                       # mshr miss rate for overall accesses
system.l2.overall_mshr_miss_rate::total      0.642600                       # mshr miss rate for overall accesses
system.l2.demand_avg_mshr_miss_latency::.switch_cpus.inst 71529.692471                       # average overall mshr miss latency
system.l2.demand_avg_mshr_miss_latency::.switch_cpus.data 68040.641485                       # average overall mshr miss latency
system.l2.demand_avg_mshr_miss_latency::total 68107.662536                       # average overall mshr miss latency
system.l2.overall_avg_mshr_miss_latency::.switch_cpus.inst 71529.692471                       # average overall mshr miss latency
system.l2.overall_avg_mshr_miss_latency::.switch_cpus.data 68040.641485                       # average overall mshr miss latency
system.l2.overall_avg_mshr_miss_latency::total 68107.662536                       # average overall mshr miss latency
system.l2.replacements                         212858                       # number of replacements
system.l2.WritebackDirty_hits::.writebacks       137951                       # number of WritebackDirty hits
system.l2.WritebackDirty_hits::total           137951                       # number of WritebackDirty hits
system.l2.WritebackDirty_accesses::.writebacks       137951                       # number of WritebackDirty accesses(hits+misses)
system.l2.WritebackDirty_accesses::total       137951                       # number of WritebackDirty accesses(hits+misses)
system.l2.WritebackClean_hits::.writebacks         5055                       # number of WritebackClean hits
system.l2.WritebackClean_hits::total             5055                       # number of WritebackClean hits
system.l2.WritebackClean_accesses::.writebacks         5055                       # number of WritebackClean accesses(hits+misses)
system.l2.WritebackClean_accesses::total         5055                       # number of WritebackClean accesses(hits+misses)
system.l2.CleanEvict_mshr_misses::.writebacks        70381                       # number of CleanEvict MSHR misses
system.l2.CleanEvict_mshr_misses::total         70381                       # number of CleanEvict MSHR misses
system.l2.CleanEvict_mshr_miss_rate::.writebacks          inf                       # mshr miss rate for CleanEvict accesses
system.l2.CleanEvict_mshr_miss_rate::total          inf                       # mshr miss rate for CleanEvict accesses
system.l2.UpgradeReq_hits::.switch_cpus.data            1                       # number of UpgradeReq hits
system.l2.UpgradeReq_hits::total                    1                       # number of UpgradeReq hits
system.l2.UpgradeReq_accesses::.switch_cpus.data            1                       # number of UpgradeReq accesses(hits+misses)
system.l2.UpgradeReq_accesses::total                1                       # number of UpgradeReq accesses(hits+misses)
system.l2.ReadExReq_hits::.switch_cpus.data         1508                       # number of ReadExReq hits
system.l2.ReadExReq_hits::total                  1508                       # number of ReadExReq hits
system.l2.ReadExReq_misses::.cpu.data               2                       # number of ReadExReq misses
system.l2.ReadExReq_misses::.switch_cpus.data         8562                       # number of ReadExReq misses
system.l2.ReadExReq_misses::total                8564                       # number of ReadExReq misses
system.l2.ReadExReq_miss_latency::.switch_cpus.data    661042000                       # number of ReadExReq miss cycles
system.l2.ReadExReq_miss_latency::total     661042000                       # number of ReadExReq miss cycles
system.l2.ReadExReq_accesses::.cpu.data             2                       # number of ReadExReq accesses(hits+misses)
system.l2.ReadExReq_accesses::.switch_cpus.data        10070                       # number of ReadExReq accesses(hits+misses)
system.l2.ReadExReq_accesses::total             10072                       # number of ReadExReq accesses(hits+misses)
system.l2.ReadExReq_miss_rate::.cpu.data            1                       # miss rate for ReadExReq accesses
system.l2.ReadExReq_miss_rate::.switch_cpus.data     0.850248                       # miss rate for ReadExReq accesses
system.l2.ReadExReq_miss_rate::total         0.850278                       # miss rate for ReadExReq accesses
system.l2.ReadExReq_avg_miss_latency::.switch_cpus.data 77206.493810                       # average ReadExReq miss latency
system.l2.ReadExReq_avg_miss_latency::total 77188.463335                       # average ReadExReq miss latency
system.l2.ReadExReq_mshr_misses::.switch_cpus.data         8562                       # number of ReadExReq MSHR misses
system.l2.ReadExReq_mshr_misses::total           8562                       # number of ReadExReq MSHR misses
system.l2.ReadExReq_mshr_miss_latency::.switch_cpus.data    575422000                       # number of ReadExReq MSHR miss cycles
system.l2.ReadExReq_mshr_miss_latency::total    575422000                       # number of ReadExReq MSHR miss cycles
system.l2.ReadExReq_mshr_miss_rate::.switch_cpus.data     0.850248                       # mshr miss rate for ReadExReq accesses
system.l2.ReadExReq_mshr_miss_rate::total     0.850079                       # mshr miss rate for ReadExReq accesses
[...]
system.cpu.itb_walker_cache.blocked_cycles::no_targets            0                       # number of cycles access was blocked
system.cpu.itb_walker_cache.blocked::no_mshrs            0                       # number of cycles access was blocked
system.cpu.itb_walker_cache.blocked::no_targets            0                       # number of cycles access was blocked
system.cpu.itb_walker_cache.avg_blocked_cycles::no_mshrs          nan                       # average number of cycles each access was blocked
system.cpu.itb_walker_cache.avg_blocked_cycles::no_targets          nan                       # average number of cycles each access was blocked
system.cpu.itb_walker_cache.replacements            0                       # number of replacements
system.cpu.itb_walker_cache.power_state.pwrStateResidencyTicks::UNDEFINED   7539599500                       # Cumulative time (in ticks) in various power states
system.cpu.itb_walker_cache.tags.tagsinuse            0                       # Cycle average of tags in use
system.cpu.itb_walker_cache.tags.total_refs            0                       # Total number of references to valid blocks.
system.cpu.itb_walker_cache.tags.sampled_refs            0                       # Sample count of references to valid blocks.
system.cpu.itb_walker_cache.tags.avg_refs          nan                       # Average number of references to valid blocks.
system.cpu.itb_walker_cache.tags.warmup_cycle            0                       # Cycle when the warmup percentage was hit.
system.cpu.itb_walker_cache.tags.tag_accesses            0                       # Number of tag accesses
system.cpu.itb_walker_cache.tags.data_accesses            0                       # Number of data accesses
system.cpu.itb_walker_cache.tags.power_state.pwrStateResidencyTicks::UNDEFINED   7539599500                       # Cumulative time (in ticks) in various power states
system.cpu.itb.walker.power_state.pwrStateResidencyTicks::UNDEFINED   7539599500                       # Cumulative time (in ticks) in various power states
system.cpu.dtb_walker_cache.blocked_cycles::no_mshrs            0                       # number of cycles access was blocked
system.cpu.dtb_walker_cache.blocked_cycles::no_targets            0                       # number of cycles access was blocked
system.cpu.dtb_walker_cache.blocked::no_mshrs            0                       # number of cycles access was blocked
system.cpu.dtb_walker_cache.blocked::no_targets            0                       # number of cycles access was blocked
system.cpu.dtb_walker_cache.avg_blocked_cycles::no_mshrs          nan                       # average number of cycles each access was blocked
system.cpu.dtb_walker_cache.avg_blocked_cycles::no_targets          nan                       # average number of cycles each access was blocked
system.cpu.dtb_walker_cache.replacements            0                       # number of replacements
system.cpu.dtb_walker_cache.power_state.pwrStateResidencyTicks::UNDEFINED   7539599500                       # Cumulative time (in ticks) in various power states
system.cpu.dtb_walker_cache.tags.tagsinuse            0                       # Cycle average of tags in use
system.cpu.dtb_walker_cache.tags.total_refs            0                       # Total number of references to valid blocks.
system.cpu.dtb_walker_cache.tags.sampled_refs            0                       # Sample count of references to valid blocks.
system.cpu.dtb_walker_cache.tags.avg_refs          nan                       # Average number of references to valid blocks.
system.cpu.dtb_walker_cache.tags.warmup_cycle            0                       # Cycle when the warmup percentage was hit.
system.cpu.dtb_walker_cache.tags.tag_accesses            0                       # Number of tag accesses
system.cpu.dtb_walker_cache.tags.data_accesses            0                       # Number of data accesses
system.cpu.dtb_walker_cache.tags.power_state.pwrStateResidencyTicks::UNDEFINED   7539599500                       # Cumulative time (in ticks) in various power states
system.cpu.dcache.demand_hits::.cpu.data            5                       # number of demand (read+write) hits
system.cpu.dcache.demand_hits::.switch_cpus.data      2734502                       # number of demand (read+write) hits
system.cpu.dcache.demand_hits::total          2734507                       # number of demand (read+write) hits
system.cpu.dcache.overall_hits::.cpu.data            5                       # number of overall hits
system.cpu.dcache.overall_hits::.switch_cpus.data      2734502                       # number of overall hits
system.cpu.dcache.overall_hits::total         2734507                       # number of overall hits
system.cpu.dcache.demand_misses::.cpu.data            2                       # number of demand (read+write) misses
system.cpu.dcache.demand_misses::.switch_cpus.data       894217                       # number of demand (read+write) misses
system.cpu.dcache.demand_misses::total         894219                       # number of demand (read+write) misses
system.cpu.dcache.overall_misses::.cpu.data            2                       # number of overall misses
system.cpu.dcache.overall_misses::.switch_cpus.data       894217                       # number of overall misses
system.cpu.dcache.overall_misses::total        894219                       # number of overall misses
system.cpu.dcache.demand_miss_latency::.switch_cpus.data  46135007472                       # number of demand (read+write) miss cycles
system.cpu.dcache.demand_miss_latency::total  46135007472                       # number of demand (read+write) miss cycles
system.cpu.dcache.overall_miss_latency::.switch_cpus.data  46135007472                       # number of overall miss cycles
system.cpu.dcache.overall_miss_latency::total  46135007472                       # number of overall miss cycles
system.cpu.dcache.demand_accesses::.cpu.data            7                       # number of demand (read+write) accesses
system.cpu.dcache.demand_accesses::.switch_cpus.data      3628719                       # number of demand (read+write) accesses
system.cpu.dcache.demand_accesses::total      3628726                       # number of demand (read+write) accesses
system.cpu.dcache.overall_accesses::.cpu.data            7                       # number of overall (read+write) accesses
system.cpu.dcache.overall_accesses::.switch_cpus.data      3628719                       # number of overall (read+write) accesses
system.cpu.dcache.overall_accesses::total      3628726                       # number of overall (read+write) accesses
system.cpu.dcache.demand_miss_rate::.cpu.data     0.285714                       # miss rate for demand accesses
system.cpu.dcache.demand_miss_rate::.switch_cpus.data     0.246428                       # miss rate for demand accesses
system.cpu.dcache.demand_miss_rate::total     0.246428                       # miss rate for demand accesses
system.cpu.dcache.overall_miss_rate::.cpu.data     0.285714                       # miss rate for overall accesses
system.cpu.dcache.overall_miss_rate::.switch_cpus.data     0.246428                       # miss rate for overall accesses
system.cpu.dcache.overall_miss_rate::total     0.246428                       # miss rate for overall accesses
system.cpu.dcache.demand_avg_miss_latency::.switch_cpus.data 51592.630728                       # average overall miss latency
system.cpu.dcache.demand_avg_miss_latency::total 51592.515337                       # average overall miss latency
system.cpu.dcache.overall_avg_miss_latency::.switch_cpus.data 51592.630728                       # average overall miss latency
system.cpu.dcache.overall_avg_miss_latency::total 51592.515337                       # average overall miss latency
system.cpu.dcache.blocked_cycles::no_mshrs       146612                       # number of cycles access was blocked
system.cpu.dcache.blocked_cycles::no_targets          525                       # number of cycles access was blocked
system.cpu.dcache.blocked::no_mshrs              3346                       # number of cycles access was blocked
system.cpu.dcache.blocked::no_targets               8                       # number of cycles access was blocked
system.cpu.dcache.avg_blocked_cycles::no_mshrs    43.817095                       # average number of cycles each access was blocked
system.cpu.dcache.avg_blocked_cycles::no_targets    65.625000                       # average number of cycles each access was blocked
system.cpu.dcache.writebacks::.writebacks       148206                       # number of writebacks
system.cpu.dcache.writebacks::total            148206                       # number of writebacks
system.cpu.dcache.demand_mshr_hits::.switch_cpus.data       647537                       # number of demand (read+write) MSHR hits
system.cpu.dcache.demand_mshr_hits::total       647537                       # number of demand (read+write) MSHR hits
system.cpu.dcache.overall_mshr_hits::.switch_cpus.data       647537                       # number of overall MSHR hits
system.cpu.dcache.overall_mshr_hits::total       647537                       # number of overall MSHR hits
system.cpu.dcache.demand_mshr_misses::.switch_cpus.data       246680                       # number of demand (read+write) MSHR misses
system.cpu.dcache.demand_mshr_misses::total       246680                       # number of demand (read+write) MSHR misses
system.cpu.dcache.overall_mshr_misses::.switch_cpus.data       246680                       # number of overall MSHR misses
system.cpu.dcache.overall_mshr_misses::total       246680                       # number of overall MSHR misses
system.cpu.dcache.demand_mshr_miss_latency::.switch_cpus.data  13650464472                       # number of demand (read+write) MSHR miss cycles
system.cpu.dcache.demand_mshr_miss_latency::total  13650464472                       # number of demand (read+write) MSHR miss cycles
system.cpu.dcache.overall_mshr_miss_latency::.switch_cpus.data  13650464472                       # number of overall MSHR miss cycles
system.cpu.dcache.overall_mshr_miss_latency::total  13650464472                       # number of overall MSHR miss cycles
system.cpu.dcache.demand_mshr_miss_rate::.switch_cpus.data     0.067980                       # mshr miss rate for demand accesses
system.cpu.dcache.demand_mshr_miss_rate::total     0.067980                       # mshr miss rate for demand accesses
system.cpu.dcache.overall_mshr_miss_rate::.switch_cpus.data     0.067980                       # mshr miss rate for overall accesses
system.cpu.dcache.overall_mshr_miss_rate::total     0.067980                       # mshr miss rate for overall accesses
system.cpu.dcache.demand_avg_mshr_miss_latency::.switch_cpus.data 55336.729658                       # average overall mshr miss latency
system.cpu.dcache.demand_avg_mshr_miss_latency::total 55336.729658                       # average overall mshr miss latency
system.cpu.dcache.overall_avg_mshr_miss_latency::.switch_cpus.data 55336.729658                       # average overall mshr miss latency
system.cpu.dcache.overall_avg_mshr_miss_latency::total 55336.729658                       # average overall mshr miss latency
system.cpu.dcache.replacements                 246617                       # number of replacements
system.cpu.dcache.ReadReq_hits::.switch_cpus.data      2182587                       # number of ReadReq hits
system.cpu.dcache.ReadReq_hits::total         2182587                       # number of ReadReq hits
system.cpu.dcache.ReadReq_misses::.switch_cpus.data       883639                       # number of ReadReq misses
system.cpu.dcache.ReadReq_misses::total        883639                       # number of ReadReq misses
system.cpu.dcache.ReadReq_miss_latency::.switch_cpus.data  45409012000                       # number of ReadReq miss cycles
system.cpu.dcache.ReadReq_miss_latency::total  45409012000                       # number of ReadReq miss cycles
system.cpu.dcache.ReadReq_accesses::.switch_cpus.data      3066226                       # number of ReadReq accesses(hits+misses)
system.cpu.dcache.ReadReq_accesses::total      3066226                       # number of ReadReq accesses(hits+misses)
system.cpu.dcache.ReadReq_miss_rate::.switch_cpus.data     0.288185                       # miss rate for ReadReq accesses
system.cpu.dcache.ReadReq_miss_rate::total     0.288185                       # miss rate for ReadReq accesses
system.cpu.dcache.ReadReq_avg_miss_latency::.switch_cpus.data 51388.646268                       # average ReadReq miss latency
system.cpu.dcache.ReadReq_avg_miss_latency::total 51388.646268                       # average ReadReq miss latency
system.cpu.dcache.ReadReq_mshr_hits::.switch_cpus.data       647159                       # number of ReadReq MSHR hits
system.cpu.dcache.ReadReq_mshr_hits::total       647159                       # number of ReadReq MSHR hits
system.cpu.dcache.ReadReq_mshr_misses::.switch_cpus.data       236480                       # number of ReadReq MSHR misses
system.cpu.dcache.ReadReq_mshr_misses::total       236480                       # number of ReadReq MSHR misses
system.cpu.dcache.ReadReq_mshr_miss_latency::.switch_cpus.data  12942066500                       # number of ReadReq MSHR miss cycles
system.cpu.dcache.ReadReq_mshr_miss_latency::total  12942066500                       # number of ReadReq MSHR miss cycles
system.cpu.dcache.ReadReq_mshr_miss_rate::.switch_cpus.data     0.077124                       # mshr miss rate for ReadReq accesses
system.cpu.dcache.ReadReq_mshr_miss_rate::total     0.077124                       # mshr miss rate for ReadReq accesses
system.cpu.dcache.ReadReq_avg_mshr_miss_latency::.switch_cpus.data 54727.953738                       # average ReadReq mshr miss latency
system.cpu.dcache.ReadReq_avg_mshr_miss_latency::total 54727.953738                       # average ReadReq mshr miss latency
system.cpu.dcache.WriteReq_hits::.cpu.data            5                       # number of WriteReq hits
system.cpu.dcache.WriteReq_hits::.switch_cpus.data       551915                       # number of WriteReq hits
system.cpu.dcache.WriteReq_hits::total         551920                       # number of WriteReq hits
system.cpu.dcache.WriteReq_misses::.cpu.data            2                       # number of WriteReq misses
system.cpu.dcache.WriteReq_misses::.switch_cpus.data        10578                       # number of WriteReq misses
system.cpu.dcache.WriteReq_misses::total        10580                       # number of WriteReq misses
system.cpu.dcache.WriteReq_miss_latency::.switch_cpus.data    725995472                       # number of WriteReq miss cycles
system.cpu.dcache.WriteReq_miss_latency::total    725995472                       # number of WriteReq miss cycles
system.cpu.dcache.WriteReq_accesses::.cpu.data            7                       # number of WriteReq accesses(hits+misses)
system.cpu.dcache.WriteReq_accesses::.switch_cpus.data       562493                       # number of WriteReq accesses(hits+misses)
system.cpu.dcache.WriteReq_accesses::total       562500                       # number of WriteReq accesses(hits+misses)
system.cpu.dcache.WriteReq_miss_rate::.cpu.data     0.285714                       # miss rate for WriteReq accesses
system.cpu.dcache.WriteReq_miss_rate::.switch_cpus.data     0.018806                       # miss rate for WriteReq accesses
system.cpu.dcache.WriteReq_miss_rate::total     0.018809                       # miss rate for WriteReq accesses
system.cpu.dcache.WriteReq_avg_miss_latency::.switch_cpus.data 68632.583853                       # average WriteReq miss latency
system.cpu.dcache.WriteReq_avg_miss_latency::total 68619.609830                       # average WriteReq miss latency
system.cpu.dcache.WriteReq_mshr_hits::.switch_cpus.data          378                       # number of WriteReq MSHR hits
system.cpu.dcache.WriteReq_mshr_hits::total          378                       # number of WriteReq MSHR hits
system.cpu.dcache.WriteReq_mshr_misses::.switch_cpus.data        10200                       # number of WriteReq MSHR misses
system.cpu.dcache.WriteReq_mshr_misses::total        10200                       # number of WriteReq MSHR misses
system.cpu.dcache.WriteReq_mshr_miss_latency::.switch_cpus.data    708397972                       # number of WriteReq MSHR miss cycles
system.cpu.dcache.WriteReq_mshr_miss_latency::total    708397972                       # number of WriteReq MSHR miss cycles
system.cpu.dcache.WriteReq_mshr_miss_rate::.switch_cpus.data     0.018134                       # mshr miss rate for WriteReq accesses
system.cpu.dcache.WriteReq_mshr_miss_rate::total     0.018133                       # mshr miss rate for WriteReq accesses
system.cpu.dcache.WriteReq_avg_mshr_miss_latency::.switch_cpus.data 69450.781569                       # average WriteReq mshr miss latency
system.cpu.dcache.WriteReq_avg_mshr_miss_latency::total 69450.781569                       # average WriteReq mshr miss latency
system.cpu.dcache.power_state.pwrStateResidencyTicks::UNDEFINED   7539599500                       # Cumulative time (in ticks) in various power states
system.cpu.dcache.tags.tagsinuse            63.979229                       # Cycle average of tags in use
system.cpu.dcache.tags.total_refs             2981189                       # Total number of references to valid blocks.
system.cpu.dcache.tags.sampled_refs            246681                       # Sample count of references to valid blocks.
system.cpu.dcache.tags.avg_refs             12.085199                       # Average number of references to valid blocks.
system.cpu.dcache.tags.warmup_cycle              1500                       # Cycle when the warmup percentage was hit.
system.cpu.dcache.tags.occ_blocks::.cpu.data     0.001796                       # Average occupied blocks per requestor
system.cpu.dcache.tags.occ_blocks::.switch_cpus.data    63.977433                       # Average occupied blocks per requestor
system.cpu.dcache.tags.occ_percent::.cpu.data     0.000028                       # Average percentage of cache occupancy
system.cpu.dcache.tags.occ_percent::.switch_cpus.data     0.999647                       # Average percentage of cache occupancy
system.cpu.dcache.tags.occ_percent::total     0.999675                       # Average percentage of cache occupancy
system.cpu.dcache.tags.occ_task_id_blocks::1024           64                       # Occupied blocks per task id
system.cpu.dcache.tags.age_task_id_blocks_1024::0           58                       # Occupied blocks per task id
system.cpu.dcache.tags.age_task_id_blocks_1024::1            4                       # Occupied blocks per task id
system.cpu.dcache.tags.age_task_id_blocks_1024::3            2                       # Occupied blocks per task id
system.cpu.dcache.tags.occ_task_id_percent::1024            1                       # Percentage of cache occupancy per task id
system.cpu.dcache.tags.tag_accesses           7504133                       # Number of tag accesses
system.cpu.dcache.tags.data_accesses          7504133                       # Number of data accesses
system.cpu.dcache.tags.power_state.pwrStateResidencyTicks::UNDEFINED   7539599500                       # Cumulative time (in ticks) in various power states
system.cpu.power_state.numTransitions               1                       # Number of power state transitions
system.cpu.power_state.pwrStateResidencyTicks::ON        10500                       # Cumulative time (in ticks) in various power states
system.cpu.power_state.pwrStateResidencyTicks::OFF   7539589000                       # Cumulative time (in ticks) in various power states

---------- End Simulation Statistics   ----------
