
---------- Begin Simulation Statistics ----------
final_tick                                 9300062500                       # Number of ticks from beginning of simulation (restored from checkpoints and never reset)
host_inst_rate                                  96029                       # Simulator instruction rate (inst/s)
host_mem_usage                                 880608                       # Number of bytes of host memory used
host_op_rate                                   202188                       # Simulator op (including micro ops) rate (op/s)
host_seconds                                   104.14                       # Real time elapsed on the host
host_tick_rate                               89307144                       # Simulator tick rate (ticks/s)
sim_freq                                 1000000000000                       # Frequency of simulated ticks
sim_insts                                    10000010                       # Number of instructions simulated
sim_ops                                      21054980                       # Number of ops (including micro ops) simulated
sim_seconds                                  0.009300                       # Number of seconds simulated
sim_ticks                                  9300062500                       # Number of ticks simulated
system.cpu.Branches                                 1                       # Number of branches fetched
system.cpu.committedInsts                          10                       # Number of instructions committed
system.cpu.committedOps                            21                       # Number of ops (including micro ops) committed
system.cpu.dtb.rdAccesses                           0                       # TLB accesses on read requests
system.cpu.dtb.rdMisses                             0                       # TLB misses on read requests
system.cpu.dtb.wrAccesses                           7                       # TLB accesses on write requests
system.cpu.dtb.wrMisses                             1                       # TLB misses on write requests
system.cpu.idle_fraction                            0                       # Percentage of idle cycles
system.cpu.itb.rdAccesses                           0                       # TLB accesses on read requests
system.cpu.itb.rdMisses                             0                       # TLB misses on read requests
system.cpu.itb.wrAccesses                          10                       # TLB accesses on write requests
system.cpu.itb.wrMisses                             0                       # TLB misses on write requests
system.cpu.not_idle_fraction                        1                       # Percentage of non-idle cycles
system.cpu.numCycles                               21                       # number of cpu cycles simulated
system.cpu.numWorkItemsCompleted                    0                       # number of work items this cpu completed
system.cpu.numWorkItemsStarted                      0                       # number of work items this cpu started
system.cpu.num_busy_cycles                         21                       # Number of busy cycles
system.cpu.num_cc_register_writes                   2                       # number of times the CC registers were written
system.cpu.num_conditional_control_insts            0                       # number of instructions that are conditional controls
system.cpu.num_fp_alu_accesses                      0                       # Number of float alu accesses
system.cpu.num_fp_insts                             0                       # number of float instructions
system.cpu.num_fp_register_reads                    0                       # number of times the floating registers were read
system.cpu.num_fp_register_writes                   0                       # number of times the floating registers were written
system.cpu.num_func_calls                           1                       # number of times a function call or return occured
system.cpu.num_idle_cycles                          0                       # Number of idle cycles
system.cpu.num_int_alu_accesses                    21                       # Number of integer alu accesses
system.cpu.num_int_insts                           21                       # number of integer instructions
system.cpu.num_int_register_reads                  47                       # number of times the integer registers were read
system.cpu.num_int_register_writes                 13                       # number of times the integer registers were written
system.cpu.num_load_insts                           0                       # Number of load instructions
system.cpu.num_mem_refs                             7                       # number of memory refs
system.cpu.num_store_insts                          7                       # Number of store instructions
system.cpu.num_vec_alu_accesses                     0                       # Number of vector alu accesses
system.cpu.num_vec_insts                            0                       # number of vector instructions
system.cpu.num_vec_register_reads                   0                       # number of times the vector registers were read
system.cpu.num_vec_register_writes                  0                       # number of times the vector registers were written
system.cpu.op_class::No_OpClass                     0      0.00%      0.00% # Class of executed instruction
system.cpu.op_class::IntAlu                        14     66.67%     66.67% # Class of executed instruction
system.cpu.op_class::IntMult                        0      0.00%     66.67% # Class of executed instruction
system.cpu.op_class::IntDiv                         0      0.00%     66.67% # Class of executed instruction
system.cpu.op_class::FloatAdd                       0      0.00%     66.67% # Class of executed instruction
system.cpu.op_class::FloatCmp                       0      0.00%     66.67% # Class of executed instruction
system.cpu.op_class::FloatCvt                       0      0.00%     66.67% # Class of executed instruction
system.cpu.op_class::FloatMult                      0      0.00%     66.67% # Class of executed instruction
system.cpu.op_class::FloatMultAcc                   0      0.00%     66.67% # Class of executed instruction
system.cpu.op_class::FloatDiv                       0      0.00%     66.67% # Class of executed instruction
system.cpu.op_class::FloatMisc                      0      0.00%     66.67% # Class of executed instruction
system.cpu.op_class::FloatSqrt                      0      0.00%     66.67% # Class of executed instruction
system.cpu.op_class::SimdAdd                        0      0.00%     66.67% # Class of executed instruction
system.cpu.op_class::SimdAddAcc                     0      0.00%     66.67% # Class of executed instruction
system.cpu.op_class::SimdAlu                        0      0.00%     66.67% # Class of executed instruction
system.cpu.op_class::SimdCmp                        0      0.00%     66.67% # Class of executed instruction
system.cpu.op_class::SimdCvt                        0      0.00%     66.67% # Class of executed instruction
system.cpu.op_class::SimdMisc                       0      0.00%     66.67% # Class of executed instruction
system.cpu.op_class::SimdMult                       0      0.00%     66.67% # Class of executed instruction
system.cpu.op_class::SimdMultAcc                    0      0.00%     66.67% # Class of executed instruction
system.cpu.op_class::SimdShift                      0      0.00%     66.67% # Class of executed instruction
system.cpu.op_class::SimdShiftAcc                   0      0.00%     66.67% # Class of executed instruction
system.cpu.op_class::SimdDiv                        0      0.00%     66.67% # Class of executed instruction
system.cpu.op_class::SimdSqrt                       0      0.00%     66.67% # Class of executed instruction
system.cpu.op_class::SimdFloatAdd                   0      0.00%     66.67% # Class of executed instruction
system.cpu.op_class::SimdFloatAlu                   0      0.00%     66.67% # Class of executed instruction
system.cpu.op_class::SimdFloatCmp                   0      0.00%     66.67% # Class of executed instruction
system.cpu.op_class::SimdFloatCvt                   0      0.00%     66.67% # Class of executed instruction
system.cpu.op_class::SimdFloatDiv                   0      0.00%     66.67% # Class of executed instruction
system.cpu.op_class::SimdFloatMisc                  0      0.00%     66.67% # Class of executed instruction
system.cpu.op_class::SimdFloatMult                  0      0.00%     66.67% # Class of executed instruction
system.cpu.op_class::SimdFloatMultAcc               0      0.00%     66.67% # Class of executed instruction
system.cpu.op_class::SimdFloatSqrt                  0      0.00%     66.67% # Class of executed instruction
system.cpu.op_class::SimdReduceAdd                  0      0.00%     66.67% # Class of executed instruction
system.cpu.op_class::SimdReduceAlu                  0      0.00%     66.67% # Class of executed instruction
system.cpu.op_class::SimdReduceCmp                  0      0.00%     66.67% # Class of executed instruction
system.cpu.op_class::SimdFloatReduceAdd             0      0.00%     66.67% # Class of executed instruction
system.cpu.op_class::SimdFloatReduceCmp             0      0.00%     66.67% # Class of executed instruction
system.cpu.op_class::SimdAes                        0      0.00%     66.67% # Class of executed instruction
system.cpu.op_class::SimdAesMix                     0      0.00%     66.67% # Class of executed instruction
system.cpu.op_class::SimdSha1Hash                   0      0.00%     66.67% # Class of executed instruction
system.cpu.op_class::SimdSha1Hash2                  0      0.00%     66.67% # Class of executed instruction
system.cpu.op_class::SimdSha256Hash                 0      0.00%     66.67% # Class of executed instruction
system.cpu.op_class::SimdSha256Hash2                0      0.00%     66.67% # Class of executed instruction
system.cpu.op_class::SimdShaSigma2                  0      0.00%     66.67% # Class of executed instruction
system.cpu.op_class::SimdShaSigma3                  0      0.00%     66.67% # Class of executed instruction
system.cpu.op_class::SimdPredAlu                    0      0.00%     66.67% # Class of executed instruction
system.cpu.op_class::MemRead                        0      0.00%     66.67% # Class of executed instruction
system.cpu.op_class::MemWrite                       7     33.33%    100.00% # Class of executed instruction
system.cpu.op_class::FloatMemRead                   0      0.00%    100.00% # Class of executed instruction
system.cpu.op_class::FloatMemWrite                  0      0.00%    100.00% # Class of executed instruction
system.cpu.op_class::IprAccess                      0      0.00%    100.00% # Class of executed instruction
system.cpu.op_class::InstPrefetch                   0      0.00%    100.00% # Class of executed instruction
system.cpu.op_class::total                         21                       # Class of executed instruction
system.cpu.workload.numSyscalls                    65                       # Number of system calls
system.membus.snoop_filter.hit_multi_requests            0                       # Number of requests hitting in the snoop filter with multiple (>1) holders of the requested data.
system.membus.snoop_filter.hit_multi_snoops            0                       # Number of snoops hitting in the snoop filter with multiple (>1) holders of the requested data.
system.membus.snoop_filter.hit_single_requests        92017                       # Number of requests hitting in the snoop filter with a single holder of the requested data.
system.membus.snoop_filter.hit_single_snoops            0                       # Number of snoops hitting in the snoop filter with a single holder of the requested data.
system.membus.snoop_filter.tot_requests        184349                       # Total number of requests made to the snoop filter.
system.membus.snoop_filter.tot_snoops               0                       # Total number of snoops made to the snoop filter.
system.switch_cpus.branchPred.BTBCorrect            0                       # Number of correct BTB predictions (this stat may not work properly.
system.switch_cpus.branchPred.BTBHitPct           nan                       # BTB Hit Percentage
system.switch_cpus.branchPred.BTBHits               0                       # Number of BTB hits
system.switch_cpus.branchPred.BTBLookups            0                       # Number of BTB lookups
system.switch_cpus.branchPred.RASInCorrect           42                       # Number of incorrect RAS predictions.
system.switch_cpus.branchPred.condIncorrect       147498                       # Number of conditional branches incorrect
system.switch_cpus.branchPred.condPredicted      3207923                       # Number of conditional branches predicted
system.switch_cpus.branchPred.indirectHits      1783409                       # Number of indirect target hits.
system.switch_cpus.branchPred.indirectLookups      2015968                       # Number of indirect predictor lookups.
system.switch_cpus.branchPred.indirectMisses       232559                       # Number of indirect misses.
system.switch_cpus.branchPred.lookups         3531612                       # Number of BP lookups
system.switch_cpus.branchPred.usedRAS          161383                       # Number of times the RAS was used to get a target.
system.switch_cpus.branchPredindirectMispredicted        67915                       # Number of mispredicted indirect branches.
system.switch_cpus.cc_regfile_reads          12704179                       # number of cc regfile reads
system.switch_cpus.cc_regfile_writes          6442770                       # number of cc regfile writes
system.switch_cpus.commit.amos                      0                       # Number of atomic instructions committed
system.switch_cpus.commit.branchMispredicts       149081                       # The number of times a branch was mispredicted
system.switch_cpus.commit.branches            2422129                       # Number of branches committed
system.switch_cpus.commit.bw_lim_events       1244495                       # number cycles where commit BW limit reached
system.switch_cpus.commit.commitNonSpecStalls          365                       # The number of times commit has been forced to stall to communicate backwards
system.switch_cpus.commit.commitSquashedInsts      6098885                       # The number of squashed insts skipped by commit
system.switch_cpus.commit.committedInsts     10000000                       # Number of instructions committed
system.switch_cpus.commit.committedOps       21054959                       # Number of ops (including micro ops) committed
system.switch_cpus.commit.committed_per_cycle::samples     16243268                       # Number of insts commited each cycle
system.switch_cpus.commit.committed_per_cycle::mean     1.296227                       # Number of insts commited each cycle
system.switch_cpus.commit.committed_per_cycle::stdev     2.380466                       # Number of insts commited each cycle
system.switch_cpus.commit.committed_per_cycle::underflows            0      0.00%      0.00% # Number of insts commited each cycle
system.switch_cpus.commit.committed_per_cycle::0     10898888     67.10%     67.10% # Number of insts commited each cycle
system.switch_cpus.commit.committed_per_cycle::1      1198192      7.38%     74.47% # Number of insts commited each cycle
system.switch_cpus.commit.committed_per_cycle::2       771665      4.75%     79.23% # Number of insts commited each cycle
system.switch_cpus.commit.committed_per_cycle::3       937270      5.77%     85.00% # Number of insts commited each cycle
system.switch_cpus.commit.committed_per_cycle::4       755394      4.65%     89.65% # Number of insts commited each cycle
system.switch_cpus.commit.committed_per_cycle::5       219134      1.35%     90.99% # Number of insts commited each cycle
system.switch_cpus.commit.committed_per_cycle::6        99189      0.61%     91.61% # Number of insts commited each cycle
system.switch_cpus.commit.committed_per_cycle::7       119041      0.73%     92.34% # Number of insts commited each cycle
system.switch_cpus.commit.committed_per_cycle::8      1244495      7.66%    100.00% # Number of insts commited each cycle
system.switch_cpus.commit.committed_per_cycle::overflows            0      0.00%    100.00% # Number of insts commited each cycle
system.switch_cpus.commit.committed_per_cycle::min_value            0                       # Number of insts commited each cycle
system.switch_cpus.commit.committed_per_cycle::max_value            8                       # Number of insts commited each cycle
system.switch_cpus.commit.committed_per_cycle::total     16243268                       # Number of insts commited each cycle
system.switch_cpus.commit.fp_insts            4621439                       # Number of committed floating point instructions.
system.switch_cpus.commit.function_calls       112444                       # Number of function calls committed.
system.switch_cpus.commit.int_insts          16966305                       # Number of committed integer instructions.
system.switch_cpus.commit.loads               2194240                       # Number of loads committed
system.switch_cpus.commit.membars                  20                       # Number of memory barriers committed
system.switch_cpus.commit.op_class_0::No_OpClass       559512      2.66%      2.66% # Class of committed instruction
system.switch_cpus.commit.op_class_0::IntAlu     14146925     67.19%     69.85% # Class of committed instruction
system.switch_cpus.commit.op_class_0::IntMult        48504      0.23%     70.08% # Class of committed instruction
system.switch_cpus.commit.op_class_0::IntDiv         2246      0.01%     70.09% # Class of committed instruction
system.switch_cpus.commit.op_class_0::FloatAdd       628858      2.99%     73.08% # Class of committed instruction
system.switch_cpus.commit.op_class_0::FloatCmp            0      0.00%     73.08% # Class of committed instruction
system.switch_cpus.commit.op_class_0::FloatCvt          480      0.00%     73.08% # Class of committed instruction
system.switch_cpus.commit.op_class_0::FloatMult            0      0.00%     73.08% # Class of committed instruction
system.switch_cpus.commit.op_class_0::FloatMultAcc            0      0.00%     73.08% # Class of committed instruction
system.switch_cpus.commit.op_class_0::FloatDiv            0      0.00%     73.08% # Class of committed instruction
system.switch_cpus.commit.op_class_0::FloatMisc            0      0.00%     73.08% # Class of committed instruction
system.switch_cpus.commit.op_class_0::FloatSqrt            0      0.00%     73.08% # Class of committed instruction
system.switch_cpus.commit.op_class_0::SimdAdd           54      0.00%     73.08% # Class of committed instruction
system.switch_cpus.commit.op_class_0::SimdAddAcc            0      0.00%     73.08% # Class of committed instruction
system.switch_cpus.commit.op_class_0::SimdAlu       235759      1.12%     74.20% # Class of committed instruction
system.switch_cpus.commit.op_class_0::SimdCmp         4992      0.02%     74.22% # Class of committed instruction
system.switch_cpus.commit.op_class_0::SimdCvt        21640      0.10%     74.32% # Class of committed instruction
system.switch_cpus.commit.op_class_0::SimdMisc       254845      1.21%     75.53% # Class of committed instruction
system.switch_cpus.commit.op_class_0::SimdMult            0      0.00%     75.53% # Class of committed instruction
system.switch_cpus.commit.op_class_0::SimdMultAcc            0      0.00%     75.53% # Class of committed instruction
system.switch_cpus.commit.op_class_0::SimdShift           22      0.00%     75.53% # Class of committed instruction
system.switch_cpus.commit.op_class_0::SimdShiftAcc            0      0.00%     75.53% # Class of committed instruction
system.switch_cpus.commit.op_class_0::SimdDiv            0      0.00%     75.53% # Class of committed instruction
system.switch_cpus.commit.op_class_0::SimdSqrt            0      0.00%     75.53% # Class of committed instruction
system.switch_cpus.commit.op_class_0::SimdFloatAdd       656958      3.12%     78.66% # Class of committed instruction
system.switch_cpus.commit.op_class_0::SimdFloatAlu            0      0.00%     78.66% # Class of committed instruction
system.switch_cpus.commit.op_class_0::SimdFloatCmp            0      0.00%     78.66% # Class of committed instruction
system.switch_cpus.commit.op_class_0::SimdFloatCvt       476252      2.26%     80.92% # Class of committed instruction
system.switch_cpus.commit.op_class_0::SimdFloatDiv        45450      0.22%     81.13% # Class of committed instruction
system.switch_cpus.commit.op_class_0::SimdFloatMisc            0      0.00%     81.13% # Class of committed instruction
system.switch_cpus.commit.op_class_0::SimdFloatMult       444463      2.11%     83.24% # Class of committed instruction
system.switch_cpus.commit.op_class_0::SimdFloatMultAcc            0      0.00%     83.24% # Class of committed instruction
system.switch_cpus.commit.op_class_0::SimdFloatSqrt            0      0.00%     83.24% # Class of committed instruction
system.switch_cpus.commit.op_class_0::SimdReduceAdd            0      0.00%     83.24% # Class of committed instruction
system.switch_cpus.commit.op_class_0::SimdReduceAlu            0      0.00%     83.24% # Class of committed instruction
system.switch_cpus.commit.op_class_0::SimdReduceCmp            0      0.00%     83.24% # Class of committed instruction
system.switch_cpus.commit.op_class_0::SimdFloatReduceAdd            0      0.00%     83.24% # Class of committed instruction
system.switch_cpus.commit.op_class_0::SimdFloatReduceCmp            0      0.00%     83.24% # Class of committed instruction
system.switch_cpus.commit.op_class_0::SimdAes            0      0.00%     83.24% # Class of committed instruction
system.switch_cpus.commit.op_class_0::SimdAesMix            0      0.00%     83.24% # Class of committed instruction
system.switch_cpus.commit.op_class_0::SimdSha1Hash            0      0.00%     83.24% # Class of committed instruction
system.switch_cpus.commit.op_class_0::SimdSha1Hash2            0      0.00%     83.24% # Class of committed instruction
system.switch_cpus.commit.op_class_0::SimdSha256Hash            0      0.00%     83.24% # Class of committed instruction
system.switch_cpus.commit.op_class_0::SimdSha256Hash2            0      0.00%     83.24% # Class of committed instruction
system.switch_cpus.commit.op_class_0::SimdShaSigma2            0      0.00%     83.24% # Class of committed instruction
system.switch_cpus.commit.op_class_0::SimdShaSigma3            0      0.00%     83.24% # Class of committed instruction
system.switch_cpus.commit.op_class_0::SimdPredAlu            0      0.00%     83.24% # Class of committed instruction
system.switch_cpus.commit.op_class_0::MemRead      1394522      6.62%     89.87% # Class of committed instruction
system.switch_cpus.commit.op_class_0::MemWrite      1143487      5.43%     95.30% # Class of committed instruction
system.switch_cpus.commit.op_class_0::FloatMemRead       799718      3.80%     99.10% # Class of committed instruction
system.switch_cpus.commit.op_class_0::FloatMemWrite       190272      0.90%    100.00% # Class of committed instruction
system.switch_cpus.commit.op_class_0::IprAccess            0      0.00%    100.00% # Class of committed instruction
system.switch_cpus.commit.op_class_0::InstPrefetch            0      0.00%    100.00% # Class of committed instruction
system.switch_cpus.commit.op_class_0::total     21054959                       # Class of committed instruction
system.switch_cpus.commit.refs                3527999                       # Number of memory references committed
system.switch_cpus.commit.swp_count                 0                       # Number of s/w prefetches committed
system.switch_cpus.commit.vec_insts                 0                       # Number of committed Vector instructions.
system.switch_cpus.committedInsts            10000000                       # Number of Instructions Simulated
system.switch_cpus.committedOps              21054959                       # Number of Ops (including micro ops) Simulated
system.switch_cpus.cpi                       1.860010                       # CPI: Cycles Per Instruction
system.switch_cpus.cpi_total                 1.860010                       # CPI: Total CPI of All Threads
system.switch_cpus.decode.BlockedCycles       6460195                       # Number of cycles decode is blocked
system.switch_cpus.decode.DecodedInsts       28709861                       # Number of instructions handled by decode
system.switch_cpus.decode.IdleCycles          6244836                       # Number of cycles decode is idle
system.switch_cpus.decode.RunCycles           3639625                       # Number of cycles decode is running
system.switch_cpus.decode.SquashCycles         149536                       # Number of cycles decode is squashing
system.switch_cpus.decode.UnblockCycles        606337                       # Number of cycles decode is unblocking
system.switch_cpus.dtb.rdAccesses             2633092                       # TLB accesses on read requests
system.switch_cpus.dtb.rdMisses                  2393                       # TLB misses on read requests
system.switch_cpus.dtb.wrAccesses             1409010                       # TLB accesses on write requests
system.switch_cpus.dtb.wrMisses                  1523                       # TLB misses on write requests
system.switch_cpus.fetch.Branches             3531612                       # Number of branches that fetch encountered
system.switch_cpus.fetch.CacheLines           1982497                       # Number of cache lines fetched
system.switch_cpus.fetch.Cycles               9990880                       # Number of cycles fetch has run and was not squashing or blocked
system.switch_cpus.fetch.IcacheSquashes         65792                       # Number of outstanding Icache misses that were squashed
system.switch_cpus.fetch.IcacheWaitRetryStallCycles          178                       # Number of stall cycles due to full MSHR
system.switch_cpus.fetch.Insts               14325910                       # Number of instructions fetch has processed
system.switch_cpus.fetch.MiscStallCycles         1680                       # Number of cycles fetch has spent waiting on interrupts, or bad addresses, or out of MSHRs
system.switch_cpus.fetch.PendingQuiesceStallCycles            7                       # Number of stall cycles due to pending quiesce instructions
system.switch_cpus.fetch.PendingTrapStallCycles        10402                       # Number of stall cycles due to pending traps
system.switch_cpus.fetch.SquashCycles          299072                       # Number of cycles fetch has spent squashing
system.switch_cpus.fetch.branchRate          0.189871                       # Number of branch fetches per cycle
system.switch_cpus.fetch.icacheStallCycles      6947848                       # Number of cycles fetch is stalled on an Icache miss
system.switch_cpus.fetch.predictedBranches      1944792                       # Number of branches that fetch has predicted taken
system.switch_cpus.fetch.rate                0.770206                       # Number of inst fetches per cycle
system.switch_cpus.fetch.rateDist::samples     17100531                       # Number of instructions fetched each cycle (Total)
system.switch_cpus.fetch.rateDist::mean      1.784962                       # Number of instructions fetched each cycle (Total)
system.switch_cpus.fetch.rateDist::stdev     3.112699                       # Number of instructions fetched each cycle (Total)
system.switch_cpus.fetch.rateDist::underflows            0      0.00%      0.00% # Number of instructions fetched each cycle (Total)
system.switch_cpus.fetch.rateDist::0         12301700     71.94%     71.94% # Number of instructions fetched each cycle (Total)
system.switch_cpus.fetch.rateDist::1           275305      1.61%     73.55% # Number of instructions fetched each cycle (Total)
system.switch_cpus.fetch.rateDist::2           224280      1.31%     74.86% # Number of instructions fetched each cycle (Total)
system.switch_cpus.fetch.rateDist::3           381687      2.23%     77.09% # Number of instructions fetched each cycle (Total)
system.switch_cpus.fetch.rateDist::4           190791      1.12%     78.21% # Number of instructions fetched each cycle (Total)
system.switch_cpus.fetch.rateDist::5           367990      2.15%     80.36% # Number of instructions fetched each cycle (Total)
system.switch_cpus.fetch.rateDist::6           312164      1.83%     82.18% # Number of instructions fetched each cycle (Total)
system.switch_cpus.fetch.rateDist::7           194146      1.14%     83.32% # Number of instructions fetched each cycle (Total)
system.switch_cpus.fetch.rateDist::8          2852468     16.68%    100.00% # Number of instructions fetched each cycle (Total)
system.switch_cpus.fetch.rateDist::overflows            0      0.00%    100.00% # Number of instructions fetched each cycle (Total)
system.switch_cpus.fetch.rateDist::min_value            0                       # Number of instructions fetched each cycle (Total)
system.switch_cpus.fetch.rateDist::max_value            8                       # Number of instructions fetched each cycle (Total)
system.switch_cpus.fetch.rateDist::total     17100531                       # Number of instructions fetched each cycle (Total)
system.switch_cpus.fp_regfile_reads           8421052                       # number of floating regfile reads
system.switch_cpus.fp_regfile_writes          4929102                       # number of floating regfile writes
system.switch_cpus.idleCycles                 1499573                       # Total number of cycles that the CPU has spent unscheduled due to idling
system.switch_cpus.iew.branchMispredicts       178026                       # Number of branch mispredicts detected at execute
system.switch_cpus.iew.exec_branches          2655607                       # Number of branches executed
system.switch_cpus.iew.exec_nop                     0                       # number of nop insts executed
system.switch_cpus.iew.exec_rate             1.315802                       # Inst execution rate
system.switch_cpus.iew.exec_refs              4062184                       # number of memory reference insts executed
system.switch_cpus.iew.exec_stores            1407469                       # Number of stores executed
system.switch_cpus.iew.exec_swp                     0                       # number of swp insts executed
system.switch_cpus.iew.iewBlockCycles         3084283                       # Number of cycles IEW is blocking
system.switch_cpus.iew.iewDispLoadInsts       2938105                       # Number of dispatched load instructions
system.switch_cpus.iew.iewDispNonSpecInsts         1333                       # Number of dispatched non-speculative instructions
system.switch_cpus.iew.iewDispSquashedInsts        12105                       # Number of squashed instructions skipped by dispatch
system.switch_cpus.iew.iewDispStoreInsts      1652603                       # Number of dispatched store instructions
system.switch_cpus.iew.iewDispatchedInsts     27155707                       # Number of instructions dispatched to IQ
system.switch_cpus.iew.iewExecLoadInsts       2654715                       # Number of load instructions executed
system.switch_cpus.iew.iewExecSquashedInsts       260372                       # Number of squashed instructions skipped in execute
system.switch_cpus.iew.iewExecutedInsts      24474060                       # Number of executed instructions
system.switch_cpus.iew.iewIQFullEvents          49440                       # Number of times the IQ has become full, causing a stall
system.switch_cpus.iew.iewIdleCycles                0                       # Number of cycles IEW is idle
system.switch_cpus.iew.iewLSQFullEvents         20332                       # Number of times the LSQ has become full, causing a stall
system.switch_cpus.iew.iewSquashCycles         149536                       # Number of cycles IEW is squashing
system.switch_cpus.iew.iewUnblockCycles         93924                       # Number of cycles IEW is unblocking
system.switch_cpus.iew.lsq.thread0.blockedLoads            0                       # Number of blocked loads due to partial load-store forwarding
system.switch_cpus.iew.lsq.thread0.cacheBlocked         7914                       # Number of times an access to memory failed due to the cache being blocked
system.switch_cpus.iew.lsq.thread0.forwLoads       186238                       # Number of loads that had data forwarded from stores
system.switch_cpus.iew.lsq.thread0.ignoredResponses          379                       # Number of memory responses ignored because the instruction is squashed
system.switch_cpus.iew.lsq.thread0.invAddrLoads            0                       # Number of loads ignored due to an invalid address
system.switch_cpus.iew.lsq.thread0.invAddrSwpfs            0                       # Number of software prefetches ignored due to an invalid address
system.switch_cpus.iew.lsq.thread0.memOrderViolation          340                       # Number of memory ordering violations
system.switch_cpus.iew.lsq.thread0.rescheduledLoads         1410                       # Number of loads that were rescheduled
system.switch_cpus.iew.lsq.thread0.squashedLoads       743857                       # Number of loads squashed
system.switch_cpus.iew.lsq.thread0.squashedStores       318832                       # Number of stores squashed
system.switch_cpus.iew.memOrderViolationEvents          340                       # Number of memory order violations
system.switch_cpus.iew.predictedNotTakenIncorrect       133316                       # Number of branches that were predicted not taken incorrectly
system.switch_cpus.iew.predictedTakenIncorrect        44710                       # Number of branches that were predicted taken incorrectly
system.switch_cpus.iew.wb_consumers          28626405                       # num instructions consuming a value
system.switch_cpus.iew.wb_count              24317920                       # cumulative count of insts written-back
system.switch_cpus.iew.wb_fanout             0.584789                       # average fanout of values written-back
system.switch_cpus.iew.wb_producers          16740402                       # num instructions producing a value
system.switch_cpus.iew.wb_rate               1.307408                       # insts written-back per cycle
system.switch_cpus.iew.wb_sent               24364454                       # cumulative count of insts sent to commit
system.switch_cpus.int_regfile_reads         27725793                       # number of integer regfile reads
system.switch_cpus.int_regfile_writes        15048582                       # number of integer regfile writes
system.switch_cpus.ipc                       0.537631                       # IPC: Instructions Per Cycle
system.switch_cpus.ipc_total                 0.537631                       # IPC: Total IPC of All Threads
system.switch_cpus.iq.FU_type_0::No_OpClass       634626      2.57%      2.57% # Type of FU issued
system.switch_cpus.iq.FU_type_0::IntAlu      16708394     67.55%     70.12% # Type of FU issued
system.switch_cpus.iq.FU_type_0::IntMult        50649      0.20%     70.32% # Type of FU issued
system.switch_cpus.iq.FU_type_0::IntDiv          2383      0.01%     70.33% # Type of FU issued
system.switch_cpus.iq.FU_type_0::FloatAdd       807410      3.26%     73.60% # Type of FU issued
system.switch_cpus.iq.FU_type_0::FloatCmp            0      0.00%     73.60% # Type of FU issued
system.switch_cpus.iq.FU_type_0::FloatCvt         1108      0.00%     73.60% # Type of FU issued
system.switch_cpus.iq.FU_type_0::FloatMult            0      0.00%     73.60% # Type of FU issued
system.switch_cpus.iq.FU_type_0::FloatMultAcc            0      0.00%     73.60% # Type of FU issued
system.switch_cpus.iq.FU_type_0::FloatDiv            0      0.00%     73.60% # Type of FU issued
system.switch_cpus.iq.FU_type_0::FloatMisc            0      0.00%     73.60% # Type of FU issued
system.switch_cpus.iq.FU_type_0::FloatSqrt            0      0.00%     73.60% # Type of FU issued
system.switch_cpus.iq.FU_type_0::SimdAdd           68      0.00%     73.60% # Type of FU issued
system.switch_cpus.iq.FU_type_0::SimdAddAcc            0      0.00%     73.60% # Type of FU issued
system.switch_cpus.iq.FU_type_0::SimdAlu       296682      1.20%     74.80% # Type of FU issued
system.switch_cpus.iq.FU_type_0::SimdCmp         4994      0.02%     74.82% # Type of FU issued
system.switch_cpus.iq.FU_type_0::SimdCvt        23891      0.10%     74.92% # Type of FU issued
system.switch_cpus.iq.FU_type_0::SimdMisc       281930      1.14%     76.06% # Type of FU issued
system.switch_cpus.iq.FU_type_0::SimdMult            0      0.00%     76.06% # Type of FU issued
system.switch_cpus.iq.FU_type_0::SimdMultAcc            0      0.00%     76.06% # Type of FU issued
system.switch_cpus.iq.FU_type_0::SimdShift           49      0.00%     76.06% # Type of FU issued
system.switch_cpus.iq.FU_type_0::SimdShiftAcc            0      0.00%     76.06% # Type of FU issued
system.switch_cpus.iq.FU_type_0::SimdDiv            0      0.00%     76.06% # Type of FU issued
system.switch_cpus.iq.FU_type_0::SimdSqrt            0      0.00%     76.06% # Type of FU issued
system.switch_cpus.iq.FU_type_0::SimdFloatAdd       742985      3.00%     79.06% # Type of FU issued
system.switch_cpus.iq.FU_type_0::SimdFloatAlu            0      0.00%     79.06% # Type of FU issued
system.switch_cpus.iq.FU_type_0::SimdFloatCmp            0      0.00%     79.06% # Type of FU issued
system.switch_cpus.iq.FU_type_0::SimdFloatCvt       541239      2.19%     81.25% # Type of FU issued
system.switch_cpus.iq.FU_type_0::SimdFloatDiv        49159      0.20%     81.45% # Type of FU issued
system.switch_cpus.iq.FU_type_0::SimdFloatMisc            0      0.00%     81.45% # Type of FU issued
system.switch_cpus.iq.FU_type_0::SimdFloatMult       471480      1.91%     83.35% # Type of FU issued
system.switch_cpus.iq.FU_type_0::SimdFloatMultAcc            0      0.00%     83.35% # Type of FU issued
system.switch_cpus.iq.FU_type_0::SimdFloatSqrt            0      0.00%     83.35% # Type of FU issued
system.switch_cpus.iq.FU_type_0::SimdReduceAdd            0      0.00%     83.35% # Type of FU issued
system.switch_cpus.iq.FU_type_0::SimdReduceAlu            0      0.00%     83.35% # Type of FU issued
system.switch_cpus.iq.FU_type_0::SimdReduceCmp            0      0.00%     83.35% # Type of FU issued
system.switch_cpus.iq.FU_type_0::SimdFloatReduceAdd            0      0.00%     83.35% # Type of FU issued
system.switch_cpus.iq.FU_type_0::SimdFloatReduceCmp            0      0.00%     83.35% # Type of FU issued
system.switch_cpus.iq.FU_type_0::SimdAes            0      0.00%     83.35% # Type of FU issued
system.switch_cpus.iq.FU_type_0::SimdAesMix            0      0.00%     83.35% # Type of FU issued
system.switch_cpus.iq.FU_type_0::SimdSha1Hash            0      0.00%     83.35% # Type of FU issued
system.switch_cpus.iq.FU_type_0::SimdSha1Hash2            0      0.00%     83.35% # Type of FU issued
system.switch_cpus.iq.FU_type_0::SimdSha256Hash            0      0.00%     83.35% # Type of FU issued
system.switch_cpus.iq.FU_type_0::SimdSha256Hash2            0      0.00%     83.35% # Type of FU issued
system.switch_cpus.iq.FU_type_0::SimdShaSigma2            0      0.00%     83.35% # Type of FU issued
system.switch_cpus.iq.FU_type_0::SimdShaSigma3            0      0.00%     83.35% # Type of FU issued
system.switch_cpus.iq.FU_type_0::SimdPredAlu            0      0.00%     83.35% # Type of FU issued
system.switch_cpus.iq.FU_type_0::MemRead      1705019      6.89%     90.25% # Type of FU issued
system.switch_cpus.iq.FU_type_0::MemWrite      1219303      4.93%     95.18% # Type of FU issued
system.switch_cpus.iq.FU_type_0::FloatMemRead       988494      4.00%     99.17% # Type of FU issued
system.switch_cpus.iq.FU_type_0::FloatMemWrite       204574      0.83%    100.00% # Type of FU issued
system.switch_cpus.iq.FU_type_0::IprAccess            0      0.00%    100.00% # Type of FU issued
system.switch_cpus.iq.FU_type_0::InstPrefetch            0      0.00%    100.00% # Type of FU issued
system.switch_cpus.iq.FU_type_0::total       24734437                       # Type of FU issued
system.switch_cpus.iq.fp_alu_accesses         5569002                       # Number of floating point alu accesses
system.switch_cpus.iq.fp_inst_queue_reads     11124932                       # Number of floating instruction queue reads
system.switch_cpus.iq.fp_inst_queue_wakeup_accesses      5447546                       # Number of floating instruction queue wakeup accesses
system.switch_cpus.iq.fp_inst_queue_writes      7849068                       # Number of floating instruction queue writes
system.switch_cpus.iq.fu_busy_cnt              205825                       # FU busy when requested
system.switch_cpus.iq.fu_busy_rate           0.008321                       # FU busy rate (busy events/executed inst)
system.switch_cpus.iq.fu_full::No_OpClass            0      0.00%      0.00% # attempts to use FU when none available
system.switch_cpus.iq.fu_full::IntAlu          186277     90.50%     90.50% # attempts to use FU when none available
system.switch_cpus.iq.fu_full::IntMult              0      0.00%     90.50% # attempts to use FU when none available
system.switch_cpus.iq.fu_full::IntDiv               0      0.00%     90.50% # attempts to use FU when none available
system.switch_cpus.iq.fu_full::FloatAdd           131      0.06%     90.57% # attempts to use FU when none available
system.switch_cpus.iq.fu_full::FloatCmp             0      0.00%     90.57% # attempts to use FU when none available
system.switch_cpus.iq.fu_full::FloatCvt             0      0.00%     90.57% # attempts to use FU when none available
system.switch_cpus.iq.fu_full::FloatMult            0      0.00%     90.57% # attempts to use FU when none available
system.switch_cpus.iq.fu_full::FloatMultAcc            0      0.00%     90.57% # attempts to use FU when none available
system.switch_cpus.iq.fu_full::FloatDiv             0      0.00%     90.57% # attempts to use FU when none available
system.switch_cpus.iq.fu_full::FloatMisc            0      0.00%     90.57% # attempts to use FU when none available
system.switch_cpus.iq.fu_full::FloatSqrt            0      0.00%     90.57% # attempts to use FU when none available
system.switch_cpus.iq.fu_full::SimdAdd              0      0.00%     90.57% # attempts to use FU when none available
system.switch_cpus.iq.fu_full::SimdAddAcc            0      0.00%     90.57% # attempts to use FU when none available
system.switch_cpus.iq.fu_full::SimdAlu           2629      1.28%     91.84% # attempts to use FU when none available
system.switch_cpus.iq.fu_full::SimdCmp              0      0.00%     91.84% # attempts to use FU when none available
system.switch_cpus.iq.fu_full::SimdCvt           4119      2.00%     93.84% # attempts to use FU when none available
system.switch_cpus.iq.fu_full::SimdMisc          2664      1.29%     95.14% # attempts to use FU when none available
system.switch_cpus.iq.fu_full::SimdMult             0      0.00%     95.14% # attempts to use FU when none available
system.switch_cpus.iq.fu_full::SimdMultAcc            0      0.00%     95.14% # attempts to use FU when none available
system.switch_cpus.iq.fu_full::SimdShift            6      0.00%     95.14% # attempts to use FU when none available
system.switch_cpus.iq.fu_full::SimdShiftAcc            0      0.00%     95.14% # attempts to use FU when none available
system.switch_cpus.iq.fu_full::SimdDiv              0      0.00%     95.14% # attempts to use FU when none available
system.switch_cpus.iq.fu_full::SimdSqrt             0      0.00%     95.14% # attempts to use FU when none available
system.switch_cpus.iq.fu_full::SimdFloatAdd          320      0.16%     95.30% # attempts to use FU when none available
system.switch_cpus.iq.fu_full::SimdFloatAlu            0      0.00%     95.30% # attempts to use FU when none available
system.switch_cpus.iq.fu_full::SimdFloatCmp            0      0.00%     95.30% # attempts to use FU when none available
system.switch_cpus.iq.fu_full::SimdFloatCvt          714      0.35%     95.64% # attempts to use FU when none available
system.switch_cpus.iq.fu_full::SimdFloatDiv          172      0.08%     95.73% # attempts to use FU when none available
system.switch_cpus.iq.fu_full::SimdFloatMisc            0      0.00%     95.73% # attempts to use FU when none available
system.switch_cpus.iq.fu_full::SimdFloatMult           15      0.01%     95.74% # attempts to use FU when none available
system.switch_cpus.iq.fu_full::SimdFloatMultAcc            0      0.00%     95.74% # attempts to use FU when none available
system.switch_cpus.iq.fu_full::SimdFloatSqrt            0      0.00%     95.74% # attempts to use FU when none available
system.switch_cpus.iq.fu_full::SimdReduceAdd            0      0.00%     95.74% # attempts to use FU when none available
system.switch_cpus.iq.fu_full::SimdReduceAlu            0      0.00%     95.74% # attempts to use FU when none available
system.switch_cpus.iq.fu_full::SimdReduceCmp            0      0.00%     95.74% # attempts to use FU when none available
system.switch_cpus.iq.fu_full::SimdFloatReduceAdd            0      0.00%     95.74% # attempts to use FU when none available
system.switch_cpus.iq.fu_full::SimdFloatReduceCmp            0      0.00%     95.74% # attempts to use FU when none available
system.switch_cpus.iq.fu_full::SimdAes              0      0.00%     95.74% # attempts to use FU when none available
system.switch_cpus.iq.fu_full::SimdAesMix            0      0.00%     95.74% # attempts to use FU when none available
system.switch_cpus.iq.fu_full::SimdSha1Hash            0      0.00%     95.74% # attempts to use FU when none available
system.switch_cpus.iq.fu_full::SimdSha1Hash2            0      0.00%     95.74% # attempts to use FU when none available
system.switch_cpus.iq.fu_full::SimdSha256Hash            0      0.00%     95.74% # attempts to use FU when none available
system.switch_cpus.iq.fu_full::SimdSha256Hash2            0      0.00%     95.74% # attempts to use FU when none available
system.switch_cpus.iq.fu_full::SimdShaSigma2            0      0.00%     95.74% # attempts to use FU when none available
system.switch_cpus.iq.fu_full::SimdShaSigma3            0      0.00%     95.74% # attempts to use FU when none available
system.switch_cpus.iq.fu_full::SimdPredAlu            0      0.00%     95.74% # attempts to use FU when none available
system.switch_cpus.iq.fu_full::MemRead           4339      2.11%     97.84% # attempts to use FU when none available
system.switch_cpus.iq.fu_full::MemWrite          2373      1.15%     99.00% # attempts to use FU when none available
system.switch_cpus.iq.fu_full::FloatMemRead         2010      0.98%     99.97% # attempts to use FU when none available
system.switch_cpus.iq.fu_full::FloatMemWrite           56      0.03%    100.00% # attempts to use FU when none available
system.switch_cpus.iq.fu_full::IprAccess            0      0.00%    100.00% # attempts to use FU when none available
system.switch_cpus.iq.fu_full::InstPrefetch            0      0.00%    100.00% # attempts to use FU when none available
system.switch_cpus.iq.int_alu_accesses       18736634                       # Number of integer alu accesses
system.switch_cpus.iq.int_inst_queue_reads     55669869                       # Number of integer instruction queue reads
system.switch_cpus.iq.int_inst_queue_wakeup_accesses     18870374                       # Number of integer instruction queue wakeup accesses
system.switch_cpus.iq.int_inst_queue_writes     25407580                       # Number of integer instruction queue writes
system.switch_cpus.iq.iqInstsAdded           27152506                       # Number of instructions added to the IQ (excludes non-spec)
system.switch_cpus.iq.iqInstsIssued          24734437                       # Number of instructions issued
system.switch_cpus.iq.iqNonSpecInstsAdded         3201                       # Number of non-speculative instructions added to the IQ
system.switch_cpus.iq.iqSquashedInstsExamined      6100638                       # Number of squashed instructions iterated over during squash; mainly for profiling
system.switch_cpus.iq.iqSquashedInstsIssued        19576                       # Number of squashed instructions issued
system.switch_cpus.iq.iqSquashedNonSpecRemoved         2836                       # Number of squashed non-spec instructions that were removed
system.switch_cpus.iq.iqSquashedOperandsExamined      9071728                       # Number of squashed operands that are examined and possibly removed from graph
system.switch_cpus.iq.issued_per_cycle::samples     17100531                       # Number of insts issued each cycle
system.switch_cpus.iq.issued_per_cycle::mean     1.446413                       # Number of insts issued each cycle
system.switch_cpus.iq.issued_per_cycle::stdev     2.095336                       # Number of insts issued each cycle
system.switch_cpus.iq.issued_per_cycle::underflows            0      0.00%      0.00% # Number of insts issued each cycle
system.switch_cpus.iq.issued_per_cycle::0      9747693     57.00%     57.00% # Number of insts issued each cycle
system.switch_cpus.iq.issued_per_cycle::1      1569430      9.18%     66.18% # Number of insts issued each cycle
system.switch_cpus.iq.issued_per_cycle::2      1386209      8.11%     74.29% # Number of insts issued each cycle
system.switch_cpus.iq.issued_per_cycle::3      1098774      6.43%     80.71% # Number of insts issued each cycle
system.switch_cpus.iq.issued_per_cycle::4      1389381      8.12%     88.84% # Number of insts issued each cycle
system.switch_cpus.iq.issued_per_cycle::5       685574      4.01%     92.85% # Number of insts issued each cycle
system.switch_cpus.iq.issued_per_cycle::6       666759      3.90%     96.74% # Number of insts issued each cycle
system.switch_cpus.iq.issued_per_cycle::7       343369      2.01%     98.75% # Number of insts issued each cycle
system.switch_cpus.iq.issued_per_cycle::8       213342      1.25%    100.00% # Number of insts issued each cycle
system.switch_cpus.iq.issued_per_cycle::overflows            0      0.00%    100.00% # Number of insts issued each cycle
system.switch_cpus.iq.issued_per_cycle::min_value            0                       # Number of insts issued each cycle
system.switch_cpus.iq.issued_per_cycle::max_value            8                       # Number of insts issued each cycle
system.switch_cpus.iq.issued_per_cycle::total     17100531                       # Number of insts issued each cycle
system.switch_cpus.iq.rate                   1.329801                       # Inst issue rate
system.switch_cpus.iq.vec_alu_accesses              0                       # Number of vector alu accesses
system.switch_cpus.iq.vec_inst_queue_reads            0                       # Number of vector instruction queue reads
system.switch_cpus.iq.vec_inst_queue_wakeup_accesses            0                       # Number of vector instruction queue wakeup accesses
system.switch_cpus.iq.vec_inst_queue_writes            0                       # Number of vector instruction queue writes
system.switch_cpus.itb.rdAccesses                   0                       # TLB accesses on read requests
system.switch_cpus.itb.rdMisses                     0                       # TLB misses on read requests
system.switch_cpus.itb.wrAccesses             1984159                       # TLB accesses on write requests
system.switch_cpus.itb.wrMisses                  1861                       # TLB misses on write requests
system.switch_cpus.memDep0.conflictingLoads       192444                       # Number of conflicting loads.
system.switch_cpus.memDep0.conflictingStores        65136                       # Number of conflicting stores.
system.switch_cpus.memDep0.insertedLoads      2938105                       # Number of loads inserted to the mem dependence unit.
system.switch_cpus.memDep0.insertedStores      1652603                       # Number of stores inserted to the mem dependence unit.
system.switch_cpus.misc_regfile_reads         9307981                       # number of misc regfile reads
system.switch_cpus.misc_regfile_writes            271                       # number of misc regfile writes
system.switch_cpus.numCycles                 18600104                       # number of cpu cycles simulated
system.switch_cpus.numWorkItemsCompleted            0                       # number of work items this cpu completed
system.switch_cpus.numWorkItemsStarted              0                       # number of work items this cpu started
system.switch_cpus.rename.BlockCycles         5246384                       # Number of cycles rename is blocking
system.switch_cpus.rename.CommittedMaps      22939769                       # Number of HB maps that are committed
system.switch_cpus.rename.IQFullEvents         704638                       # Number of times rename has blocked due to IQ full
system.switch_cpus.rename.IdleCycles          6469388                       # Number of cycles rename is idle
system.switch_cpus.rename.LQFullEvents          16451                       # Number of times rename has blocked due to LQ full
system.switch_cpus.rename.ROBFullEvents         95256                       # Number of times rename has blocked due to ROB full
system.switch_cpus.rename.RenameLookups      69211123                       # Number of register rename lookups that rename has made
system.switch_cpus.rename.RenamedInsts       28093174                       # Number of instructions processed by rename
system.switch_cpus.rename.RenamedOperands     30446361                       # Number of destination operands rename has renamed
system.switch_cpus.rename.RunCycles           3964179                       # Number of cycles rename is running
system.switch_cpus.rename.SQFullEvents         339139                       # Number of times rename has blocked due to SQ full
system.switch_cpus.rename.SquashCycles         149536                       # Number of cycles rename is squashing
system.switch_cpus.rename.UnblockCycles       1256815                       # Number of cycles rename is unblocking
system.switch_cpus.rename.UndoneMaps          7506452                       # Number of HB maps that are undone due to squashing
system.switch_cpus.rename.fp_rename_lookups     10438851                       # Number of floating rename lookups
system.switch_cpus.rename.int_rename_lookups     32792633                       # Number of integer rename lookups
system.switch_cpus.rename.serializeStallCycles        14228                       # count of cycles rename stalled for serializing inst
system.switch_cpus.rename.serializingInsts          438                       # count of serializing insts renamed
system.switch_cpus.rename.skidInsts           2681238                       # count of insts added to the skid buffer
system.switch_cpus.rename.tempSerializingInsts          393                       # count of temporary serializing insts renamed
system.switch_cpus.rob.rob_reads             42150056                       # The number of ROB reads
system.switch_cpus.rob.rob_writes            55168321                       # The number of ROB writes
system.switch_cpus.timesIdled                  129448                       # Number of times that the entire CPU went into an idle state and unscheduled itself
system.tol2bus.snoop_filter.hit_multi_requests          757                       # Number of requests hitting in the snoop filter with multiple (>1) holders of the requested data.
system.tol2bus.snoop_filter.hit_multi_snoops           26                       # Number of snoops hitting in the snoop filter with multiple (>1) holders of the requested data.
system.tol2bus.snoop_filter.hit_single_requests       440770                       # Number of requests hitting in the snoop filter with a single holder of the requested data.
system.tol2bus.snoop_filter.hit_single_snoops        82045                       # Number of snoops hitting in the snoop filter with a single holder of the requested data.
system.tol2bus.snoop_filter.tot_requests       881668                       # Total number of requests made to the snoop filter.
system.tol2bus.snoop_filter.tot_snoops          82071                       # Total number of snoops made to the snoop filter.
system.membus.trans_dist::ReadResp              84606                       # Transaction distribution
system.membus.trans_dist::WritebackDirty         8908                       # Transaction distribution
system.membus.trans_dist::CleanEvict            83108                       # Transaction distribution
system.membus.trans_dist::UpgradeReq                1                       # Transaction distribution
system.membus.trans_dist::ReadExReq              7726                       # Transaction distribution
system.membus.trans_dist::ReadExResp             7726                       # Transaction distribution
system.membus.trans_dist::ReadSharedReq         84606                       # Transaction distribution
system.membus.pkt_count_system.l2.mem_side::system.mem_ctrls.port       276681                       # Packet count per connected master and slave (bytes)
system.membus.pkt_count_system.l2.mem_side::total       276681                       # Packet count per connected master and slave (bytes)
system.membus.pkt_count::total                 276681                       # Packet count per connected master and slave (bytes)
system.membus.pkt_size_system.l2.mem_side::system.mem_ctrls.port      6479360                       # Cumulative packet size per connected master and slave (bytes)
system.membus.pkt_size_system.l2.mem_side::total      6479360                       # Cumulative packet size per connected master and slave (bytes)
system.membus.pkt_size::total                 6479360                       # Cumulative packet size per connected master and slave (bytes)
system.membus.snoops                                0                       # Total snoops (count)
system.membus.snoopTraffic                          0                       # Total snoop traffic (bytes)
system.membus.snoop_fanout::samples             92333                       # Request fanout histogram
system.membus.snoop_fanout::mean                    0                       # Request fanout histogram
system.membus.snoop_fanout::stdev                   0                       # Request fanout histogram
system.membus.snoop_fanout::underflows              0      0.00%      0.00% # Request fanout histogram
system.membus.snoop_fanout::0                   92333    100.00%    100.00% # Request fanout histogram
system.membus.snoop_fanout::1                       0      0.00%    100.00% # Request fanout histogram
system.membus.snoop_fanout::overflows               0      0.00%    100.00% # Request fanout histogram
system.membus.snoop_fanout::min_value               0                       # Request fanout histogram
system.membus.snoop_fanout::max_value               0                       # Request fanout histogram
system.membus.snoop_fanout::total               92333                       # Request fanout histogram
system.membus.reqLayer2.occupancy           242895000                       # Layer occupancy (ticks)
system.membus.reqLayer2.utilization               2.6                       # Layer utilization (%)
system.membus.respLayer1.occupancy          488500750                       # Layer occupancy (ticks)
system.membus.respLayer1.utilization              5.3                       # Layer utilization (%)
system.membus.power_state.pwrStateResidencyTicks::UNDEFINED   9300062500                       # Cumulative time (in ticks) in various power states
system.switch_cpus.dtb.walker.power_state.pwrStateResidencyTicks::UNDEFINED   9300062500                       # Cumulative time (in ticks) in various power states
system.switch_cpus.itb.walker.power_state.pwrStateResidencyTicks::UNDEFINED   9300062500                       # Cumulative time (in ticks) in various power states
system.switch_cpus.power_state.pwrStateResidencyTicks::OFF   9300062500                       # Cumulative time (in ticks) in various power states
system.tol2bus.trans_dist::ReadResp            419829                       # Transaction distribution
system.tol2bus.trans_dist::WritebackDirty        41736                       # Transaction distribution
system.tol2bus.trans_dist::WritebackClean       248794                       # Transaction distribution
system.tol2bus.trans_dist::CleanEvict          256662                       # Transaction distribution
system.tol2bus.trans_dist::UpgradeReq               1                       # Transaction distribution
system.tol2bus.trans_dist::UpgradeResp              1                       # Transaction distribution
system.tol2bus.trans_dist::ReadExReq            21069                       # Transaction distribution
system.tol2bus.trans_dist::ReadExResp           21069                       # Transaction distribution
system.tol2bus.trans_dist::ReadCleanReq        248859                       # Transaction distribution
system.tol2bus.trans_dist::ReadSharedReq       170970                       # Transaction distribution
system.tol2bus.pkt_count_system.cpu.icache.mem_side::system.l2.cpu_side       746510                       # Packet count per connected master and slave (bytes)
system.tol2bus.pkt_count_system.cpu.dcache.mem_side::system.l2.cpu_side       576055                       # Packet count per connected master and slave (bytes)
system.tol2bus.pkt_count::total               1322565                       # Packet count per connected master and slave (bytes)
system.tol2bus.pkt_size_system.cpu.icache.mem_side::system.l2.cpu_side     31849664                       # Cumulative packet size per connected master and slave (bytes)
system.tol2bus.pkt_size_system.cpu.dcache.mem_side::system.l2.cpu_side     14391488                       # Cumulative packet size per connected master and slave (bytes)
system.tol2bus.pkt_size::total               46241152                       # Cumulative packet size per connected master and slave (bytes)
system.tol2bus.snoops                          106425                       # Total snoops (count)
system.tol2bus.snoopTraffic                    570240                       # Total snoop traffic (bytes)
system.tol2bus.snoop_fanout::samples           547322                       # Request fanout histogram
system.tol2bus.snoop_fanout::mean            0.151383                       # Request fanout histogram
system.tol2bus.snoop_fanout::stdev           0.358554                       # Request fanout histogram
system.tol2bus.snoop_fanout::underflows             0      0.00%      0.00% # Request fanout histogram
system.tol2bus.snoop_fanout::0                 464493     84.87%     84.87% # Request fanout histogram
system.tol2bus.snoop_fanout::1                  82803     15.13%    100.00% # Request fanout histogram
system.tol2bus.snoop_fanout::2                     26      0.00%    100.00% # Request fanout histogram
system.tol2bus.snoop_fanout::3                      0      0.00%    100.00% # Request fanout histogram
system.tol2bus.snoop_fanout::4                      0      0.00%    100.00% # Request fanout histogram
system.tol2bus.snoop_fanout::overflows              0      0.00%    100.00% # Request fanout histogram
system.tol2bus.snoop_fanout::min_value              0                       # Request fanout histogram
system.tol2bus.snoop_fanout::max_value              2                       # Request fanout histogram
system.tol2bus.snoop_fanout::total             547322                       # Request fanout histogram
system.tol2bus.reqLayer0.occupancy          722454500                       # Layer occupancy (ticks)
system.tol2bus.reqLayer0.utilization              7.8                       # Layer utilization (%)
system.tol2bus.respLayer1.occupancy         288285543                       # Layer occupancy (ticks)
system.tol2bus.respLayer1.utilization             3.1                       # Layer utilization (%)
system.tol2bus.respLayer0.occupancy         373610349                       # Layer occupancy (ticks)
system.tol2bus.respLayer0.utilization             4.0                       # Layer utilization (%)
system.tol2bus.power_state.pwrStateResidencyTicks::UNDEFINED   9300062500                       # Cumulative time (in ticks) in various power states
system.voltage_domain.voltage                       1                       # Voltage in Volts
system.clk_domain.clock                          1000                       # Clock period in ticks
system.l2.demand_hits::.switch_cpus.inst       242391                       # number of demand (read+write) hits
system.l2.demand_hits::.switch_cpus.data       106171                       # number of demand (read+write) hits
system.l2.demand_hits::total                   348562                       # number of demand (read+write) hits
system.l2.overall_hits::.switch_cpus.inst       242391                       # number of overall hits
system.l2.overall_hits::.switch_cpus.data       106171                       # number of overall hits
system.l2.overall_hits::total                  348562                       # number of overall hits
system.l2.demand_misses::.cpu.inst                  2                       # number of demand (read+write) misses
system.l2.demand_misses::.cpu.data                  1                       # number of demand (read+write) misses
system.l2.demand_misses::.switch_cpus.inst         6464                       # number of demand (read+write) misses
system.l2.demand_misses::.switch_cpus.data        85867                       # number of demand (read+write) misses
system.l2.demand_misses::total                  92334                       # number of demand (read+write) misses
system.l2.overall_misses::.cpu.inst                 2                       # number of overall misses
system.l2.overall_misses::.cpu.data                 1                       # number of overall misses
system.l2.overall_misses::.switch_cpus.inst         6464                       # number of overall misses
system.l2.overall_misses::.switch_cpus.data        85867                       # number of overall misses
system.l2.overall_misses::total                 92334                       # number of overall misses
system.l2.demand_miss_latency::.switch_cpus.inst    537105500                       # number of demand (read+write) miss cycles
system.l2.demand_miss_latency::.switch_cpus.data   6766606500                       # number of demand (read+write) miss cycles
system.l2.demand_miss_latency::total       7303712000                       # number of demand (read+write) miss cycles
system.l2.overall_miss_latency::.switch_cpus.inst    537105500                       # number of overall miss cycles
system.l2.overall_miss_latency::.switch_cpus.data   6766606500                       # number of overall miss cycles
system.l2.overall_miss_latency::total      7303712000                       # number of overall miss cycles
system.l2.demand_accesses::.cpu.inst                2                       # number of demand (read+write) accesses
system.l2.demand_accesses::.cpu.data                1                       # number of demand (read+write) accesses
system.l2.demand_accesses::.switch_cpus.inst       248855                       # number of demand (read+write) accesses
system.l2.demand_accesses::.switch_cpus.data       192038                       # number of demand (read+write) accesses
system.l2.demand_accesses::total               440896                       # number of demand (read+write) accesses
system.l2.overall_accesses::.cpu.inst               2                       # number of overall (read+write) accesses
system.l2.overall_accesses::.cpu.data               1                       # number of overall (read+write) accesses
system.l2.overall_accesses::.switch_cpus.inst       248855                       # number of overall (read+write) accesses
system.l2.overall_accesses::.switch_cpus.data       192038                       # number of overall (read+write) accesses
system.l2.overall_accesses::total              440896                       # number of overall (read+write) accesses
system.l2.demand_miss_rate::.cpu.inst               1                       # miss rate for demand accesses
system.l2.demand_miss_rate::.cpu.data               1                       # miss rate for demand accesses
system.l2.demand_miss_rate::.switch_cpus.inst     0.025975                       # miss rate for demand accesses
system.l2.demand_miss_rate::.switch_cpus.data     0.447135                       # miss rate for demand accesses
system.l2.demand_miss_rate::total            0.209424                       # miss rate for demand accesses
system.l2.overall_miss_rate::.cpu.inst              1                       # miss rate for overall accesses
system.l2.overall_miss_rate::.cpu.data              1                       # miss rate for overall accesses
system.l2.overall_miss_rate::.switch_cpus.inst     0.025975                       # miss rate for overall accesses
system.l2.overall_miss_rate::.switch_cpus.data     0.447135                       # miss rate for overall accesses
system.l2.overall_miss_rate::total           0.209424                       # miss rate for overall accesses
system.l2.demand_avg_miss_latency::.switch_cpus.inst 83091.816213                       # average overall miss latency
system.l2.demand_avg_miss_latency::.switch_cpus.data 78803.341214                       # average overall miss latency
system.l2.demand_avg_miss_latency::total 79101.002881                       # average overall miss latency
system.l2.overall_avg_miss_latency::.switch_cpus.inst 83091.816213                       # average overall miss latency
system.l2.overall_avg_miss_latency::.switch_cpus.data 78803.341214                       # average overall miss latency
system.l2.overall_avg_miss_latency::total 79101.002881                       # average overall miss latency
system.l2.blocked_cycles::no_mshrs                  0                       # number of cycles access was blocked
system.l2.blocked_cycles::no_targets                0                       # number of cycles access was blocked
system.l2.blocked::no_mshrs                         0                       # number of cycles access was blocked
system.l2.blocked::no_targets                       0                       # number of cycles access was blocked
system.l2.avg_blocked_cycles::no_mshrs            nan                       # average number of cycles each access was blocked
system.l2.avg_blocked_cycles::no_targets          nan                       # average number of cycles each access was blocked
system.l2.writebacks::.writebacks                8908                       # number of writebacks
system.l2.writebacks::total                      8908                       # number of writebacks
system.l2.demand_mshr_hits::.switch_cpus.inst            1                       # number of demand (read+write) MSHR hits
system.l2.demand_mshr_hits::.switch_cpus.data            1                       # number of demand (read+write) MSHR hits
system.l2.demand_mshr_hits::total                   2                       # number of demand (read+write) MSHR hits
system.l2.overall_mshr_hits::.switch_cpus.inst            1                       # number of overall MSHR hits
system.l2.overall_mshr_hits::.switch_cpus.data            1                       # number of overall MSHR hits
system.l2.overall_mshr_hits::total                  2                       # number of overall MSHR hits
system.l2.demand_mshr_misses::.switch_cpus.inst         6463                       # number of demand (read+write) MSHR misses
system.l2.demand_mshr_misses::.switch_cpus.data        85866                       # number of demand (read+write) MSHR misses
system.l2.demand_mshr_misses::total             92329                       # number of demand (read+write) MSHR misses
system.l2.overall_mshr_misses::.switch_cpus.inst         6463                       # number of overall MSHR misses
system.l2.overall_mshr_misses::.switch_cpus.data        85866                       # number of overall MSHR misses
system.l2.overall_mshr_misses::total            92329                       # number of overall MSHR misses
system.l2.demand_mshr_miss_latency::.switch_cpus.inst    472379000                       # number of demand (read+write) MSHR miss cycles
system.l2.demand_mshr_miss_latency::.switch_cpus.data   5907886000                       # number of demand (read+write) MSHR miss cycles
system.l2.demand_mshr_miss_latency::total   6380265000                       # number of demand (read+write) MSHR miss cycles
system.l2.overall_mshr_miss_latency::.switch_cpus.inst    472379000                       # number of overall MSHR miss cycles
system.l2.overall_mshr_miss_latency::.switch_cpus.data   5907886000                       # number of overall MSHR miss cycles
system.l2.overall_mshr_miss_latency::total   6380265000                       # number of overall MSHR miss cycles
system.l2.demand_mshr_miss_rate::.switch_cpus.inst     0.025971                       # mshr miss rate for demand accesses
system.l2.demand_mshr_miss_rate::.switch_cpus.data     0.447130                       # mshr miss rate for demand accesses
system.l2.demand_mshr_miss_rate::total       0.209412                       # mshr miss rate for demand accesses
system.l2.overall_mshr_miss_rate::.switch_cpus.inst     0.025971                       # mshr miss rate for overall accesses
system.l2.overall_mshr_miss_rate::.switch_cpus.data     0.447130                       # mshr miss rate for overall accesses
system.l2.overall_mshr_miss_rate::total      0.209412                       # mshr miss rate for overall accesses
system.l2.demand_avg_mshr_miss_latency::.switch_cpus.inst 73089.741606                       # average overall mshr miss latency
system.l2.demand_avg_mshr_miss_latency::.switch_cpus.data 68803.554375                       # average overall mshr miss latency
system.l2.demand_avg_mshr_miss_latency::total 69103.586089                       # average overall mshr miss latency
system.l2.overall_avg_mshr_miss_latency::.switch_cpus.inst 73089.741606                       # average overall mshr miss latency
system.l2.overall_avg_mshr_miss_latency::.switch_cpus.data 68803.554375                       # average overall mshr miss latency
system.l2.overall_avg_mshr_miss_latency::total 69103.586089                       # average overall mshr miss latency
system.l2.replacements                         106423                       # number of replacements
system.l2.WritebackDirty_hits::.writebacks        32828                       # number of WritebackDirty hits
system.l2.WritebackDirty_hits::total            32828                       # number of WritebackDirty hits
system.l2.WritebackDirty_accesses::.writebacks        32828                       # number of WritebackDirty accesses(hits+misses)
system.l2.WritebackDirty_accesses::total        32828                       # number of WritebackDirty accesses(hits+misses)
system.l2.WritebackClean_hits::.writebacks       248792                       # number of WritebackClean hits
system.l2.WritebackClean_hits::total           248792                       # number of WritebackClean hits
system.l2.WritebackClean_accesses::.writebacks       248792                       # number of WritebackClean accesses(hits+misses)
system.l2.WritebackClean_accesses::total       248792                       # number of WritebackClean accesses(hits+misses)
system.l2.CleanEvict_mshr_misses::.writebacks        67662                       # number of CleanEvict MSHR misses
system.l2.CleanEvict_mshr_misses::total         67662                       # number of CleanEvict MSHR misses
system.l2.CleanEvict_mshr_miss_rate::.writebacks          inf                       # mshr miss rate for CleanEvict accesses
system.l2.CleanEvict_mshr_miss_rate::total          inf                       # mshr miss rate for CleanEvict accesses
system.l2.UpgradeReq_misses::.switch_cpus.data            1                       # number of UpgradeReq misses
system.l2.UpgradeReq_misses::total                  1                       # number of UpgradeReq misses
system.l2.UpgradeReq_accesses::.switch_cpus.data            1                       # number of UpgradeReq accesses(hits+misses)
system.l2.UpgradeReq_accesses::total                1                       # number of UpgradeReq accesses(hits+misses)
system.l2.UpgradeReq_miss_rate::.switch_cpus.data            1                       # miss rate for UpgradeReq accesses
system.l2.UpgradeReq_miss_rate::total               1                       # miss rate for UpgradeReq accesses
system.l2.UpgradeReq_mshr_misses::.switch_cpus.data            1                       # number of UpgradeReq MSHR misses
system.l2.UpgradeReq_mshr_misses::total             1                       # number of UpgradeReq MSHR misses
system.l2.UpgradeReq_mshr_miss_latency::.switch_cpus.data        19500                       # number of UpgradeReq MSHR miss cycles
system.l2.UpgradeReq_mshr_miss_latency::total        19500                       # number of UpgradeReq MSHR miss cycles
system.l2.UpgradeReq_mshr_miss_rate::.switch_cpus.data            1                       # mshr miss rate for UpgradeReq accesses
system.l2.UpgradeReq_mshr_miss_rate::total            1                       # mshr miss rate for UpgradeReq accesses
system.l2.UpgradeReq_avg_mshr_miss_latency::.switch_cpus.data        19500                       # average UpgradeReq mshr miss latency
system.l2.UpgradeReq_avg_mshr_miss_latency::total        19500                       # average UpgradeReq mshr miss latency
system.l2.ReadExReq_hits::.switch_cpus.data        13343                       # number of ReadExReq hits
system.l2.ReadExReq_hits::total                 13343                       # number of ReadExReq hits
system.l2.ReadExReq_misses::.cpu.data               1                       # number of ReadExReq misses
system.l2.ReadExReq_misses::.switch_cpus.data         7725                       # number of ReadExReq misses
system.l2.ReadExReq_misses::total                7726                       # number of ReadExReq misses
system.l2.ReadExReq_miss_latency::.switch_cpus.data    503429500                       # number of ReadExReq miss cycles
system.l2.ReadExReq_miss_latency::total     503429500                       # number of ReadExReq miss cycles
system.l2.ReadExReq_accesses::.cpu.data             1                       # number of ReadExReq accesses(hits+misses)
system.l2.ReadExReq_accesses::.switch_cpus.data        21068                       # number of ReadExReq accesses(hits+misses)
[...]
system.cpu.itb_walker_cache.blocked_cycles::no_targets            0                       # number of cycles access was blocked
system.cpu.itb_walker_cache.blocked::no_mshrs            0                       # number of cycles access was blocked
system.cpu.itb_walker_cache.blocked::no_targets            0                       # number of cycles access was blocked
system.cpu.itb_walker_cache.avg_blocked_cycles::no_mshrs          nan                       # average number of cycles each access was blocked
system.cpu.itb_walker_cache.avg_blocked_cycles::no_targets          nan                       # average number of cycles each access was blocked
system.cpu.itb_walker_cache.replacements            0                       # number of replacements
system.cpu.itb_walker_cache.power_state.pwrStateResidencyTicks::UNDEFINED  10427727500                       # Cumulative time (in ticks) in various power states
system.cpu.itb_walker_cache.tags.tagsinuse            0                       # Cycle average of tags in use
system.cpu.itb_walker_cache.tags.total_refs            0                       # Total number of references to valid blocks.
system.cpu.itb_walker_cache.tags.sampled_refs            0                       # Sample count of references to valid blocks.
system.cpu.itb_walker_cache.tags.avg_refs          nan                       # Average number of references to valid blocks.
system.cpu.itb_walker_cache.tags.warmup_cycle            0                       # Cycle when the warmup percentage was hit.
system.cpu.itb_walker_cache.tags.tag_accesses            0                       # Number of tag accesses
system.cpu.itb_walker_cache.tags.data_accesses            0                       # Number of data accesses
system.cpu.itb_walker_cache.tags.power_state.pwrStateResidencyTicks::UNDEFINED  10427727500                       # Cumulative time (in ticks) in various power states
system.cpu.itb.walker.power_state.pwrStateResidencyTicks::UNDEFINED  10427727500                       # Cumulative time (in ticks) in various power states
system.cpu.dtb_walker_cache.blocked_cycles::no_mshrs            0                       # number of cycles access was blocked
system.cpu.dtb_walker_cache.blocked_cycles::no_targets            0                       # number of cycles access was blocked
system.cpu.dtb_walker_cache.blocked::no_mshrs            0                       # number of cycles access was blocked
system.cpu.dtb_walker_cache.blocked::no_targets            0                       # number of cycles access was blocked
system.cpu.dtb_walker_cache.avg_blocked_cycles::no_mshrs          nan                       # average number of cycles each access was blocked
system.cpu.dtb_walker_cache.avg_blocked_cycles::no_targets          nan                       # average number of cycles each access was blocked
system.cpu.dtb_walker_cache.replacements            0                       # number of replacements
system.cpu.dtb_walker_cache.power_state.pwrStateResidencyTicks::UNDEFINED  10427727500                       # Cumulative time (in ticks) in various power states
system.cpu.dtb_walker_cache.tags.tagsinuse            0                       # Cycle average of tags in use
system.cpu.dtb_walker_cache.tags.total_refs            0                       # Total number of references to valid blocks.
system.cpu.dtb_walker_cache.tags.sampled_refs            0                       # Sample count of references to valid blocks.
system.cpu.dtb_walker_cache.tags.avg_refs          nan                       # Average number of references to valid blocks.
system.cpu.dtb_walker_cache.tags.warmup_cycle            0                       # Cycle when the warmup percentage was hit.
system.cpu.dtb_walker_cache.tags.tag_accesses            0                       # Number of tag accesses
system.cpu.dtb_walker_cache.tags.data_accesses            0                       # Number of data accesses
system.cpu.dtb_walker_cache.tags.power_state.pwrStateResidencyTicks::UNDEFINED  10427727500                       # Cumulative time (in ticks) in various power states
system.cpu.dcache.demand_hits::.cpu.data            6                       # number of demand (read+write) hits
system.cpu.dcache.demand_hits::.switch_cpus.data      3750201                       # number of demand (read+write) hits
system.cpu.dcache.demand_hits::total          3750207                       # number of demand (read+write) hits
system.cpu.dcache.overall_hits::.cpu.data            6                       # number of overall hits
system.cpu.dcache.overall_hits::.switch_cpus.data      3750201                       # number of overall hits
system.cpu.dcache.overall_hits::total         3750207                       # number of overall hits
system.cpu.dcache.demand_misses::.cpu.data            1                       # number of demand (read+write) misses
system.cpu.dcache.demand_misses::.switch_cpus.data       377048                       # number of demand (read+write) misses
system.cpu.dcache.demand_misses::total         377049                       # number of demand (read+write) misses
system.cpu.dcache.overall_misses::.cpu.data            1                       # number of overall misses
system.cpu.dcache.overall_misses::.switch_cpus.data       377048                       # number of overall misses
system.cpu.dcache.overall_misses::total        377049                       # number of overall misses
system.cpu.dcache.demand_miss_latency::.switch_cpus.data  18374166401                       # number of demand (read+write) miss cycles
system.cpu.dcache.demand_miss_latency::total  18374166401                       # number of demand (read+write) miss cycles
system.cpu.dcache.overall_miss_latency::.switch_cpus.data  18374166401                       # number of overall miss cycles
system.cpu.dcache.overall_miss_latency::total  18374166401                       # number of overall miss cycles
system.cpu.dcache.demand_accesses::.cpu.data            7                       # number of demand (read+write) accesses
system.cpu.dcache.demand_accesses::.switch_cpus.data      4127249                       # number of demand (read+write) accesses
system.cpu.dcache.demand_accesses::total      4127256                       # number of demand (read+write) accesses
system.cpu.dcache.overall_accesses::.cpu.data            7                       # number of overall (read+write) accesses
system.cpu.dcache.overall_accesses::.switch_cpus.data      4127249                       # number of overall (read+write) accesses
system.cpu.dcache.overall_accesses::total      4127256                       # number of overall (read+write) accesses
system.cpu.dcache.demand_miss_rate::.cpu.data     0.142857                       # miss rate for demand accesses
system.cpu.dcache.demand_miss_rate::.switch_cpus.data     0.091356                       # miss rate for demand accesses
system.cpu.dcache.demand_miss_rate::total     0.091356                       # miss rate for demand accesses
system.cpu.dcache.overall_miss_rate::.cpu.data     0.142857                       # miss rate for overall accesses
system.cpu.dcache.overall_miss_rate::.switch_cpus.data     0.091356                       # miss rate for overall accesses
system.cpu.dcache.overall_miss_rate::total     0.091356                       # miss rate for overall accesses
system.cpu.dcache.demand_avg_miss_latency::.switch_cpus.data 48731.637354                       # average overall miss latency
system.cpu.dcache.demand_avg_miss_latency::total 48731.508109                       # average overall miss latency
system.cpu.dcache.overall_avg_miss_latency::.switch_cpus.data 48731.637354                       # average overall miss latency
system.cpu.dcache.overall_avg_miss_latency::total 48731.508109                       # average overall miss latency
system.cpu.dcache.blocked_cycles::no_mshrs       384420                       # number of cycles access was blocked
system.cpu.dcache.blocked_cycles::no_targets         1780                       # number of cycles access was blocked
system.cpu.dcache.blocked::no_mshrs             11341                       # number of cycles access was blocked
system.cpu.dcache.blocked::no_targets              22                       # number of cycles access was blocked
system.cpu.dcache.avg_blocked_cycles::no_mshrs    33.896482                       # average number of cycles each access was blocked
system.cpu.dcache.avg_blocked_cycles::no_targets    80.909091                       # average number of cycles each access was blocked
system.cpu.dcache.writebacks::.writebacks        37039                       # number of writebacks
system.cpu.dcache.writebacks::total             37039                       # number of writebacks
system.cpu.dcache.demand_mshr_hits::.switch_cpus.data       154815                       # number of demand (read+write) MSHR hits
system.cpu.dcache.demand_mshr_hits::total       154815                       # number of demand (read+write) MSHR hits
system.cpu.dcache.overall_mshr_hits::.switch_cpus.data       154815                       # number of overall MSHR hits
system.cpu.dcache.overall_mshr_hits::total       154815                       # number of overall MSHR hits
system.cpu.dcache.demand_mshr_misses::.switch_cpus.data       222233                       # number of demand (read+write) MSHR misses
system.cpu.dcache.demand_mshr_misses::total       222233                       # number of demand (read+write) MSHR misses
system.cpu.dcache.overall_mshr_misses::.switch_cpus.data       222233                       # number of overall MSHR misses
system.cpu.dcache.overall_mshr_misses::total       222233                       # number of overall MSHR misses
system.cpu.dcache.demand_mshr_miss_latency::.switch_cpus.data   9776722401                       # number of demand (read+write) MSHR miss cycles
system.cpu.dcache.demand_mshr_miss_latency::total   9776722401                       # number of demand (read+write) MSHR miss cycles
system.cpu.dcache.overall_mshr_miss_latency::.switch_cpus.data   9776722401                       # number of overall MSHR miss cycles
system.cpu.dcache.overall_mshr_miss_latency::total   9776722401                       # number of overall MSHR miss cycles
system.cpu.dcache.demand_mshr_miss_rate::.switch_cpus.data     0.053845                       # mshr miss rate for demand accesses
system.cpu.dcache.demand_mshr_miss_rate::total     0.053845                       # mshr miss rate for demand accesses
system.cpu.dcache.overall_mshr_miss_rate::.switch_cpus.data     0.053845                       # mshr miss rate for overall accesses
system.cpu.dcache.overall_mshr_miss_rate::total     0.053845                       # mshr miss rate for overall accesses
system.cpu.dcache.demand_avg_mshr_miss_latency::.switch_cpus.data 43993.117138                       # average overall mshr miss latency
system.cpu.dcache.demand_avg_mshr_miss_latency::total 43993.117138                       # average overall mshr miss latency
system.cpu.dcache.overall_avg_mshr_miss_latency::.switch_cpus.data 43993.117138                       # average overall mshr miss latency
system.cpu.dcache.overall_avg_mshr_miss_latency::total 43993.117138                       # average overall mshr miss latency
system.cpu.dcache.replacements                 222168                       # number of replacements
system.cpu.dcache.ReadReq_hits::.switch_cpus.data      2369849                       # number of ReadReq hits
system.cpu.dcache.ReadReq_hits::total         2369849                       # number of ReadReq hits
system.cpu.dcache.ReadReq_misses::.switch_cpus.data       352977                       # number of ReadReq misses
system.cpu.dcache.ReadReq_misses::total        352977                       # number of ReadReq misses
system.cpu.dcache.ReadReq_miss_latency::.switch_cpus.data  17546962500                       # number of ReadReq miss cycles
system.cpu.dcache.ReadReq_miss_latency::total  17546962500                       # number of ReadReq miss cycles
system.cpu.dcache.ReadReq_accesses::.switch_cpus.data      2722826                       # number of ReadReq accesses(hits+misses)
system.cpu.dcache.ReadReq_accesses::total      2722826                       # number of ReadReq accesses(hits+misses)
system.cpu.dcache.ReadReq_miss_rate::.switch_cpus.data     0.129636                       # miss rate for ReadReq accesses
system.cpu.dcache.ReadReq_miss_rate::total     0.129636                       # miss rate for ReadReq accesses
system.cpu.dcache.ReadReq_avg_miss_latency::.switch_cpus.data 49711.348048                       # average ReadReq miss latency
system.cpu.dcache.ReadReq_avg_miss_latency::total 49711.348048                       # average ReadReq miss latency
system.cpu.dcache.ReadReq_mshr_hits::.switch_cpus.data       154727                       # number of ReadReq MSHR hits
system.cpu.dcache.ReadReq_mshr_hits::total       154727                       # number of ReadReq MSHR hits
system.cpu.dcache.ReadReq_mshr_misses::.switch_cpus.data       198250                       # number of ReadReq MSHR misses
system.cpu.dcache.ReadReq_mshr_misses::total       198250                       # number of ReadReq MSHR misses
system.cpu.dcache.ReadReq_mshr_miss_latency::.switch_cpus.data   8976140500                       # number of ReadReq MSHR miss cycles
system.cpu.dcache.ReadReq_mshr_miss_latency::total   8976140500                       # number of ReadReq MSHR miss cycles
system.cpu.dcache.ReadReq_mshr_miss_rate::.switch_cpus.data     0.072810                       # mshr miss rate for ReadReq accesses
system.cpu.dcache.ReadReq_mshr_miss_rate::total     0.072810                       # mshr miss rate for ReadReq accesses
system.cpu.dcache.ReadReq_avg_mshr_miss_latency::.switch_cpus.data 45276.875158                       # average ReadReq mshr miss latency
system.cpu.dcache.ReadReq_avg_mshr_miss_latency::total 45276.875158                       # average ReadReq mshr miss latency
system.cpu.dcache.WriteReq_hits::.cpu.data            6                       # number of WriteReq hits
system.cpu.dcache.WriteReq_hits::.switch_cpus.data      1380352                       # number of WriteReq hits
system.cpu.dcache.WriteReq_hits::total        1380358                       # number of WriteReq hits
system.cpu.dcache.WriteReq_misses::.cpu.data            1                       # number of WriteReq misses
system.cpu.dcache.WriteReq_misses::.switch_cpus.data        24071                       # number of WriteReq misses
system.cpu.dcache.WriteReq_misses::total        24072                       # number of WriteReq misses
system.cpu.dcache.WriteReq_miss_latency::.switch_cpus.data    827203901                       # number of WriteReq miss cycles
system.cpu.dcache.WriteReq_miss_latency::total    827203901                       # number of WriteReq miss cycles
system.cpu.dcache.WriteReq_accesses::.cpu.data            7                       # number of WriteReq accesses(hits+misses)
system.cpu.dcache.WriteReq_accesses::.switch_cpus.data      1404423                       # number of WriteReq accesses(hits+misses)
system.cpu.dcache.WriteReq_accesses::total      1404430                       # number of WriteReq accesses(hits+misses)
system.cpu.dcache.WriteReq_miss_rate::.cpu.data     0.142857                       # miss rate for WriteReq accesses
system.cpu.dcache.WriteReq_miss_rate::.switch_cpus.data     0.017139                       # miss rate for WriteReq accesses
system.cpu.dcache.WriteReq_miss_rate::total     0.017140                       # miss rate for WriteReq accesses
system.cpu.dcache.WriteReq_avg_miss_latency::.switch_cpus.data 34365.165593                       # average WriteReq miss latency
system.cpu.dcache.WriteReq_avg_miss_latency::total 34363.737994                       # average WriteReq miss latency
system.cpu.dcache.WriteReq_mshr_hits::.switch_cpus.data           88                       # number of WriteReq MSHR hits
system.cpu.dcache.WriteReq_mshr_hits::total           88                       # number of WriteReq MSHR hits
system.cpu.dcache.WriteReq_mshr_misses::.switch_cpus.data        23983                       # number of WriteReq MSHR misses
system.cpu.dcache.WriteReq_mshr_misses::total        23983                       # number of WriteReq MSHR misses
system.cpu.dcache.WriteReq_mshr_miss_latency::.switch_cpus.data    800581901                       # number of WriteReq MSHR miss cycles
system.cpu.dcache.WriteReq_mshr_miss_latency::total    800581901                       # number of WriteReq MSHR miss cycles
system.cpu.dcache.WriteReq_mshr_miss_rate::.switch_cpus.data     0.017077                       # mshr miss rate for WriteReq accesses
system.cpu.dcache.WriteReq_mshr_miss_rate::total     0.017077                       # mshr miss rate for WriteReq accesses
system.cpu.dcache.WriteReq_avg_mshr_miss_latency::.switch_cpus.data 33381.224242                       # average WriteReq mshr miss latency
system.cpu.dcache.WriteReq_avg_mshr_miss_latency::total 33381.224242                       # average WriteReq mshr miss latency
system.cpu.dcache.power_state.pwrStateResidencyTicks::UNDEFINED  10427727500                       # Cumulative time (in ticks) in various power states
system.cpu.dcache.tags.tagsinuse            63.983961                       # Cycle average of tags in use
system.cpu.dcache.tags.total_refs             3972440                       # Total number of references to valid blocks.
system.cpu.dcache.tags.sampled_refs            222232                       # Sample count of references to valid blocks.
system.cpu.dcache.tags.avg_refs             17.875193                       # Average number of references to valid blocks.
system.cpu.dcache.tags.warmup_cycle              1500                       # Cycle when the warmup percentage was hit.
system.cpu.dcache.tags.occ_blocks::.cpu.data     0.000456                       # Average occupied blocks per requestor
system.cpu.dcache.tags.occ_blocks::.switch_cpus.data    63.983505                       # Average occupied blocks per requestor
system.cpu.dcache.tags.occ_percent::.cpu.data     0.000007                       # Average percentage of cache occupancy
system.cpu.dcache.tags.occ_percent::.switch_cpus.data     0.999742                       # Average percentage of cache occupancy
system.cpu.dcache.tags.occ_percent::total     0.999749                       # Average percentage of cache occupancy
system.cpu.dcache.tags.occ_task_id_blocks::1024           64                       # Occupied blocks per task id
system.cpu.dcache.tags.age_task_id_blocks_1024::0           47                       # Occupied blocks per task id
system.cpu.dcache.tags.age_task_id_blocks_1024::1           13                       # Occupied blocks per task id
system.cpu.dcache.tags.age_task_id_blocks_1024::2            4                       # Occupied blocks per task id
system.cpu.dcache.tags.occ_task_id_percent::1024            1                       # Percentage of cache occupancy per task id
system.cpu.dcache.tags.tag_accesses           8476744                       # Number of tag accesses
system.cpu.dcache.tags.data_accesses          8476744                       # Number of data accesses
system.cpu.dcache.tags.power_state.pwrStateResidencyTicks::UNDEFINED  10427727500                       # Cumulative time (in ticks) in various power states
system.cpu.power_state.numTransitions               1                       # Number of power state transitions
system.cpu.power_state.pwrStateResidencyTicks::ON        10500                       # Cumulative time (in ticks) in various power states
system.cpu.power_state.pwrStateResidencyTicks::OFF  10427717000                       # Cumulative time (in ticks) in various power states

---------- End Simulation Statistics   ----------
