
---------- Begin Simulation Statistics ----------
final_tick                               116382532500                       # Number of ticks from beginning of simulation (restored from checkpoints and never reset)
host_inst_rate                                  27653                       # Simulator instruction rate (inst/s)
host_mem_usage                                1967660                       # Number of bytes of host memory used
host_op_rate                                    53727                       # Simulator op (including micro ops) rate (op/s)
host_seconds                                   361.63                       # Real time elapsed on the host
host_tick_rate                              321828186                       # Simulator tick rate (ticks/s)
sim_freq                                 1000000000000                       # Frequency of simulated ticks
sim_insts                                    10000010                       # Number of instructions simulated
sim_ops                                      19429293                       # Number of ops (including micro ops) simulated
sim_seconds                                  0.116383                       # Number of seconds simulated
sim_ticks                                116382532500                       # Number of ticks simulated
system.cpu.Branches                                 1                       # Number of branches fetched
system.cpu.committedInsts                          10                       # Number of instructions committed
system.cpu.committedOps                            21                       # Number of ops (including micro ops) committed
system.cpu.dtb.rdAccesses                           0                       # TLB accesses on read requests
system.cpu.dtb.rdMisses                             0                       # TLB misses on read requests
system.cpu.dtb.wrAccesses                           7                       # TLB accesses on write requests
system.cpu.dtb.wrMisses                             1                       # TLB misses on write requests
system.cpu.idle_fraction                            0                       # Percentage of idle cycles
system.cpu.itb.rdAccesses                           0                       # TLB accesses on read requests
system.cpu.itb.rdMisses                             0                       # TLB misses on read requests
system.cpu.itb.wrAccesses                          10                       # TLB accesses on write requests
system.cpu.itb.wrMisses                             0                       # TLB misses on write requests
system.cpu.not_idle_fraction                        1                       # Percentage of non-idle cycles
system.cpu.numCycles                               21                       # number of cpu cycles simulated
system.cpu.numWorkItemsCompleted                    0                       # number of work items this cpu completed
system.cpu.numWorkItemsStarted                      0                       # number of work items this cpu started
system.cpu.num_busy_cycles                         21                       # Number of busy cycles
system.cpu.num_cc_register_writes                   2                       # number of times the CC registers were written
system.cpu.num_conditional_control_insts            0                       # number of instructions that are conditional controls
system.cpu.num_fp_alu_accesses                      0                       # Number of float alu accesses
system.cpu.num_fp_insts                             0                       # number of float instructions
system.cpu.num_fp_register_reads                    0                       # number of times the floating registers were read
system.cpu.num_fp_register_writes                   0                       # number of times the floating registers were written
system.cpu.num_func_calls                           1                       # number of times a function call or return occured
system.cpu.num_idle_cycles                          0                       # Number of idle cycles
system.cpu.num_int_alu_accesses                    21                       # Number of integer alu accesses
system.cpu.num_int_insts                           21                       # number of integer instructions
system.cpu.num_int_register_reads                  47                       # number of times the integer registers were read
system.cpu.num_int_register_writes                 13                       # number of times the integer registers were written
system.cpu.num_load_insts                           0                       # Number of load instructions
system.cpu.num_mem_refs                             7                       # number of memory refs
system.cpu.num_store_insts                          7                       # Number of store instructions
system.cpu.num_vec_alu_accesses                     0                       # Number of vector alu accesses
system.cpu.num_vec_insts                            0                       # number of vector instructions
system.cpu.num_vec_register_reads                   0                       # number of times the vector registers were read
system.cpu.num_vec_register_writes                  0                       # number of times the vector registers were written
system.cpu.op_class::No_OpClass                     0      0.00%      0.00% # Class of executed instruction
system.cpu.op_class::IntAlu                        14     66.67%     66.67% # Class of executed instruction
system.cpu.op_class::IntMult                        0      0.00%     66.67% # Class of executed instruction
system.cpu.op_class::IntDiv                         0      0.00%     66.67% # Class of executed instruction
system.cpu.op_class::FloatAdd                       0      0.00%     66.67% # Class of executed instruction
system.cpu.op_class::FloatCmp                       0      0.00%     66.67% # Class of executed instruction
system.cpu.op_class::FloatCvt                       0      0.00%     66.67% # Class of executed instruction
system.cpu.op_class::FloatMult                      0      0.00%     66.67% # Class of executed instruction
system.cpu.op_class::FloatMultAcc                   0      0.00%     66.67% # Class of executed instruction
system.cpu.op_class::FloatDiv                       0      0.00%     66.67% # Class of executed instruction
system.cpu.op_class::FloatMisc                      0      0.00%     66.67% # Class of executed instruction
system.cpu.op_class::FloatSqrt                      0      0.00%     66.67% # Class of executed instruction
system.cpu.op_class::SimdAdd                        0      0.00%     66.67% # Class of executed instruction
system.cpu.op_class::SimdAddAcc                     0      0.00%     66.67% # Class of executed instruction
system.cpu.op_class::SimdAlu                        0      0.00%     66.67% # Class of executed instruction
system.cpu.op_class::SimdCmp                        0      0.00%     66.67% # Class of executed instruction
system.cpu.op_class::SimdCvt                        0      0.00%     66.67% # Class of executed instruction
system.cpu.op_class::SimdMisc                       0      0.00%     66.67% # Class of executed instruction
system.cpu.op_class::SimdMult                       0      0.00%     66.67% # Class of executed instruction
system.cpu.op_class::SimdMultAcc                    0      0.00%     66.67% # Class of executed instruction
system.cpu.op_class::SimdShift                      0      0.00%     66.67% # Class of executed instruction
system.cpu.op_class::SimdShiftAcc                   0      0.00%     66.67% # Class of executed instruction
system.cpu.op_class::SimdDiv                        0      0.00%     66.67% # Class of executed instruction
system.cpu.op_class::SimdSqrt                       0      0.00%     66.67% # Class of executed instruction
system.cpu.op_class::SimdFloatAdd                   0      0.00%     66.67% # Class of executed instruction
system.cpu.op_class::SimdFloatAlu                   0      0.00%     66.67% # Class of executed instruction
system.cpu.op_class::SimdFloatCmp                   0      0.00%     66.67% # Class of executed instruction
system.cpu.op_class::SimdFloatCvt                   0      0.00%     66.67% # Class of executed instruction
system.cpu.op_class::SimdFloatDiv                   0      0.00%     66.67% # Class of executed instruction
system.cpu.op_class::SimdFloatMisc                  0      0.00%     66.67% # Class of executed instruction
system.cpu.op_class::SimdFloatMult                  0      0.00%     66.67% # Class of executed instruction
system.cpu.op_class::SimdFloatMultAcc               0      0.00%     66.67% # Class of executed instruction
system.cpu.op_class::SimdFloatSqrt                  0      0.00%     66.67% # Class of executed instruction
system.cpu.op_class::SimdReduceAdd                  0      0.00%     66.67% # Class of executed instruction
system.cpu.op_class::SimdReduceAlu                  0      0.00%     66.67% # Class of executed instruction
system.cpu.op_class::SimdReduceCmp                  0      0.00%     66.67% # Class of executed instruction
system.cpu.op_class::SimdFloatReduceAdd             0      0.00%     66.67% # Class of executed instruction
system.cpu.op_class::SimdFloatReduceCmp             0      0.00%     66.67% # Class of executed instruction
system.cpu.op_class::SimdAes                        0      0.00%     66.67% # Class of executed instruction
system.cpu.op_class::SimdAesMix                     0      0.00%     66.67% # Class of executed instruction
system.cpu.op_class::SimdSha1Hash                   0      0.00%     66.67% # Class of executed instruction
system.cpu.op_class::SimdSha1Hash2                  0      0.00%     66.67% # Class of executed instruction
system.cpu.op_class::SimdSha256Hash                 0      0.00%     66.67% # Class of executed instruction
system.cpu.op_class::SimdSha256Hash2                0      0.00%     66.67% # Class of executed instruction
system.cpu.op_class::SimdShaSigma2                  0      0.00%     66.67% # Class of executed instruction
system.cpu.op_class::SimdShaSigma3                  0      0.00%     66.67% # Class of executed instruction
system.cpu.op_class::SimdPredAlu                    0      0.00%     66.67% # Class of executed instruction
system.cpu.op_class::MemRead                        0      0.00%     66.67% # Class of executed instruction
system.cpu.op_class::MemWrite                       7     33.33%    100.00% # Class of executed instruction
system.cpu.op_class::FloatMemRead                   0      0.00%    100.00% # Class of executed instruction
system.cpu.op_class::FloatMemWrite                  0      0.00%    100.00% # Class of executed instruction
system.cpu.op_class::IprAccess                      0      0.00%    100.00% # Class of executed instruction
system.cpu.op_class::InstPrefetch                   0      0.00%    100.00% # Class of executed instruction
system.cpu.op_class::total                         21                       # Class of executed instruction
system.cpu.workload.numSyscalls                    30                       # Number of system calls
system.membus.snoop_filter.hit_multi_requests            0                       # Number of requests hitting in the snoop filter with multiple (>1) holders of the requested data.
system.membus.snoop_filter.hit_multi_snoops            0                       # Number of snoops hitting in the snoop filter with multiple (>1) holders of the requested data.
system.membus.snoop_filter.hit_single_requests      1301376                       # Number of requests hitting in the snoop filter with a single holder of the requested data.
system.membus.snoop_filter.hit_single_snoops            0                       # Number of snoops hitting in the snoop filter with a single holder of the requested data.
system.membus.snoop_filter.tot_requests       2603111                       # Total number of requests made to the snoop filter.
system.membus.snoop_filter.tot_snoops               0                       # Total number of snoops made to the snoop filter.
system.switch_cpus.branchPred.BTBCorrect            0                       # Number of correct BTB predictions (this stat may not work properly.
system.switch_cpus.branchPred.BTBHitPct           nan                       # BTB Hit Percentage
system.switch_cpus.branchPred.BTBHits               0                       # Number of BTB hits
system.switch_cpus.branchPred.BTBLookups            0                       # Number of BTB lookups
system.switch_cpus.branchPred.RASInCorrect            3                       # Number of incorrect RAS predictions.
system.switch_cpus.branchPred.condIncorrect         7951                       # Number of conditional branches incorrect
system.switch_cpus.branchPred.condPredicted      1556784                       # Number of conditional branches predicted
system.switch_cpus.branchPred.indirectHits      1502586                       # Number of indirect target hits.
system.switch_cpus.branchPred.indirectLookups      1519111                       # Number of indirect predictor lookups.
system.switch_cpus.branchPred.indirectMisses        16525                       # Number of indirect misses.
system.switch_cpus.branchPred.lookups         1566603                       # Number of BP lookups
system.switch_cpus.branchPred.usedRAS            4762                       # Number of times the RAS was used to get a target.
system.switch_cpus.branchPredindirectMispredicted         3439                       # Number of mispredicted indirect branches.
system.switch_cpus.cc_regfile_reads           7685799                       # number of cc regfile reads
system.switch_cpus.cc_regfile_writes          6354198                       # number of cc regfile writes
system.switch_cpus.commit.amos                      0                       # Number of atomic instructions committed
system.switch_cpus.commit.branchMispredicts         8385                       # The number of times a branch was mispredicted
system.switch_cpus.commit.branches            1364234                       # Number of branches committed
system.switch_cpus.commit.bw_lim_events        104217                       # number cycles where commit BW limit reached
system.switch_cpus.commit.commitNonSpecStalls           66                       # The number of times commit has been forced to stall to communicate backwards
system.switch_cpus.commit.commitSquashedInsts      1450524                       # The number of squashed insts skipped by commit
system.switch_cpus.commit.committedInsts     10000000                       # Number of instructions committed
system.switch_cpus.commit.committedOps       19429272                       # Number of ops (including micro ops) committed
system.switch_cpus.commit.committed_per_cycle::samples    232489422                       # Number of insts commited each cycle
system.switch_cpus.commit.committed_per_cycle::mean     0.083571                       # Number of insts commited each cycle
system.switch_cpus.commit.committed_per_cycle::stdev     0.411305                       # Number of insts commited each cycle
system.switch_cpus.commit.committed_per_cycle::underflows            0      0.00%      0.00% # Number of insts commited each cycle
system.switch_cpus.commit.committed_per_cycle::0    219356082     94.35%     94.35% # Number of insts commited each cycle
system.switch_cpus.commit.committed_per_cycle::1      9247804      3.98%     98.33% # Number of insts commited each cycle
system.switch_cpus.commit.committed_per_cycle::2      2301516      0.99%     99.32% # Number of insts commited each cycle
system.switch_cpus.commit.committed_per_cycle::3      1328546      0.57%     99.89% # Number of insts commited each cycle
system.switch_cpus.commit.committed_per_cycle::4        29703      0.01%     99.90% # Number of insts commited each cycle
system.switch_cpus.commit.committed_per_cycle::5        90232      0.04%     99.94% # Number of insts commited each cycle
system.switch_cpus.commit.committed_per_cycle::6        30164      0.01%     99.95% # Number of insts commited each cycle
system.switch_cpus.commit.committed_per_cycle::7         1158      0.00%     99.96% # Number of insts commited each cycle
system.switch_cpus.commit.committed_per_cycle::8       104217      0.04%    100.00% # Number of insts commited each cycle
system.switch_cpus.commit.committed_per_cycle::overflows            0      0.00%    100.00% # Number of insts commited each cycle
system.switch_cpus.commit.committed_per_cycle::min_value            0                       # Number of insts commited each cycle
system.switch_cpus.commit.committed_per_cycle::max_value            8                       # Number of insts commited each cycle
system.switch_cpus.commit.committed_per_cycle::total    232489422                       # Number of insts commited each cycle
system.switch_cpus.commit.fp_insts           10355201                       # Number of committed floating point instructions.
system.switch_cpus.commit.function_calls         2749                       # Number of function calls committed.
system.switch_cpus.commit.int_insts          19425506                       # Number of committed integer instructions.
system.switch_cpus.commit.loads                200463                       # Number of loads committed
system.switch_cpus.commit.membars                   0                       # Number of memory barriers committed
system.switch_cpus.commit.op_class_0::No_OpClass         3626      0.02%      0.02% # Class of committed instruction
system.switch_cpus.commit.op_class_0::IntAlu      8731515     44.94%     44.96% # Class of committed instruction
system.switch_cpus.commit.op_class_0::IntMult          643      0.00%     44.96% # Class of committed instruction
system.switch_cpus.commit.op_class_0::IntDiv         1388      0.01%     44.97% # Class of committed instruction
system.switch_cpus.commit.op_class_0::FloatAdd           37      0.00%     44.97% # Class of committed instruction
system.switch_cpus.commit.op_class_0::FloatCmp            0      0.00%     44.97% # Class of committed instruction
system.switch_cpus.commit.op_class_0::FloatCvt           64      0.00%     44.97% # Class of committed instruction
system.switch_cpus.commit.op_class_0::FloatMult            0      0.00%     44.97% # Class of committed instruction
system.switch_cpus.commit.op_class_0::FloatMultAcc            0      0.00%     44.97% # Class of committed instruction
system.switch_cpus.commit.op_class_0::FloatDiv            0      0.00%     44.97% # Class of committed instruction
system.switch_cpus.commit.op_class_0::FloatMisc            0      0.00%     44.97% # Class of committed instruction
system.switch_cpus.commit.op_class_0::FloatSqrt            0      0.00%     44.97% # Class of committed instruction
system.switch_cpus.commit.op_class_0::SimdAdd            0      0.00%     44.97% # Class of committed instruction
system.switch_cpus.commit.op_class_0::SimdAddAcc            0      0.00%     44.97% # Class of committed instruction
system.switch_cpus.commit.op_class_0::SimdAlu            6      0.00%     44.97% # Class of committed instruction
system.switch_cpus.commit.op_class_0::SimdCmp            0      0.00%     44.97% # Class of committed instruction
system.switch_cpus.commit.op_class_0::SimdCvt           36      0.00%     44.97% # Class of committed instruction
system.switch_cpus.commit.op_class_0::SimdMisc           71      0.00%     44.97% # Class of committed instruction
system.switch_cpus.commit.op_class_0::SimdMult            0      0.00%     44.97% # Class of committed instruction
system.switch_cpus.commit.op_class_0::SimdMultAcc            0      0.00%     44.97% # Class of committed instruction
system.switch_cpus.commit.op_class_0::SimdShift            0      0.00%     44.97% # Class of committed instruction
system.switch_cpus.commit.op_class_0::SimdShiftAcc            0      0.00%     44.97% # Class of committed instruction
system.switch_cpus.commit.op_class_0::SimdDiv            0      0.00%     44.97% # Class of committed instruction
system.switch_cpus.commit.op_class_0::SimdSqrt            0      0.00%     44.97% # Class of committed instruction
system.switch_cpus.commit.op_class_0::SimdFloatAdd            0      0.00%     44.97% # Class of committed instruction
system.switch_cpus.commit.op_class_0::SimdFloatAlu            0      0.00%     44.97% # Class of committed instruction
system.switch_cpus.commit.op_class_0::SimdFloatCmp            0      0.00%     44.97% # Class of committed instruction
system.switch_cpus.commit.op_class_0::SimdFloatCvt            0      0.00%     44.97% # Class of committed instruction
system.switch_cpus.commit.op_class_0::SimdFloatDiv            0      0.00%     44.97% # Class of committed instruction
system.switch_cpus.commit.op_class_0::SimdFloatMisc            0      0.00%     44.97% # Class of committed instruction
system.switch_cpus.commit.op_class_0::SimdFloatMult            0      0.00%     44.97% # Class of committed instruction
system.switch_cpus.commit.op_class_0::SimdFloatMultAcc            0      0.00%     44.97% # Class of committed instruction
system.switch_cpus.commit.op_class_0::SimdFloatSqrt            0      0.00%     44.97% # Class of committed instruction
system.switch_cpus.commit.op_class_0::SimdReduceAdd            0      0.00%     44.97% # Class of committed instruction
system.switch_cpus.commit.op_class_0::SimdReduceAlu            0      0.00%     44.97% # Class of committed instruction
system.switch_cpus.commit.op_class_0::SimdReduceCmp            0      0.00%     44.97% # Class of committed instruction
system.switch_cpus.commit.op_class_0::SimdFloatReduceAdd            0      0.00%     44.97% # Class of committed instruction
system.switch_cpus.commit.op_class_0::SimdFloatReduceCmp            0      0.00%     44.97% # Class of committed instruction
system.switch_cpus.commit.op_class_0::SimdAes            0      0.00%     44.97% # Class of committed instruction
system.switch_cpus.commit.op_class_0::SimdAesMix            0      0.00%     44.97% # Class of committed instruction
system.switch_cpus.commit.op_class_0::SimdSha1Hash            0      0.00%     44.97% # Class of committed instruction
system.switch_cpus.commit.op_class_0::SimdSha1Hash2            0      0.00%     44.97% # Class of committed instruction
system.switch_cpus.commit.op_class_0::SimdSha256Hash            0      0.00%     44.97% # Class of committed instruction
system.switch_cpus.commit.op_class_0::SimdSha256Hash2            0      0.00%     44.97% # Class of committed instruction
system.switch_cpus.commit.op_class_0::SimdShaSigma2            0      0.00%     44.97% # Class of committed instruction
system.switch_cpus.commit.op_class_0::SimdShaSigma3            0      0.00%     44.97% # Class of committed instruction
system.switch_cpus.commit.op_class_0::SimdPredAlu            0      0.00%     44.97% # Class of committed instruction
system.switch_cpus.commit.op_class_0::MemRead       200317      1.03%     46.00% # Class of committed instruction
system.switch_cpus.commit.op_class_0::MemWrite       136605      0.70%     46.70% # Class of committed instruction
system.switch_cpus.commit.op_class_0::FloatMemRead          146      0.00%     46.71% # Class of committed instruction
system.switch_cpus.commit.op_class_0::FloatMemWrite     10354818     53.29%    100.00% # Class of committed instruction
system.switch_cpus.commit.op_class_0::IprAccess            0      0.00%    100.00% # Class of committed instruction
system.switch_cpus.commit.op_class_0::InstPrefetch            0      0.00%    100.00% # Class of committed instruction
system.switch_cpus.commit.op_class_0::total     19429272                       # Class of committed instruction
system.switch_cpus.commit.refs               10691886                       # Number of memory references committed
system.switch_cpus.commit.swp_count                 0                       # Number of s/w prefetches committed
system.switch_cpus.commit.vec_insts                 0                       # Number of committed Vector instructions.
system.switch_cpus.committedInsts            10000000                       # Number of Instructions Simulated
system.switch_cpus.committedOps              19429272                       # Number of Ops (including micro ops) Simulated
system.switch_cpus.cpi                      23.276504                       # CPI: Cycles Per Instruction
system.switch_cpus.cpi_total                23.276504                       # CPI: Total CPI of All Threads
system.switch_cpus.decode.BlockedCycles     228915341                       # Number of cycles decode is blocked
system.switch_cpus.decode.DecodedInsts       21095198                       # Number of instructions handled by decode
system.switch_cpus.decode.IdleCycles           994803                       # Number of cycles decode is idle
system.switch_cpus.decode.RunCycles            355614                       # Number of cycles decode is running
system.switch_cpus.decode.SquashCycles          28757                       # Number of cycles decode is squashing
system.switch_cpus.decode.UnblockCycles       2385389                       # Number of cycles decode is unblocking
system.switch_cpus.dtb.rdAccesses              231190                       # TLB accesses on read requests
system.switch_cpus.dtb.rdMisses                  1630                       # TLB misses on read requests
system.switch_cpus.dtb.wrAccesses            11165463                       # TLB accesses on write requests
system.switch_cpus.dtb.wrMisses                647428                       # TLB misses on write requests
system.switch_cpus.fetch.Branches             1566603                       # Number of branches that fetch encountered
system.switch_cpus.fetch.CacheLines           3002643                       # Number of cache lines fetched
system.switch_cpus.fetch.Cycles             229578855                       # Number of cycles fetch has run and was not squashing or blocked
system.switch_cpus.fetch.IcacheSquashes          2685                       # Number of outstanding Icache misses that were squashed
system.switch_cpus.fetch.IcacheWaitRetryStallCycles           80                       # Number of stall cycles due to full MSHR
system.switch_cpus.fetch.Insts               11307071                       # Number of instructions fetch has processed
system.switch_cpus.fetch.MiscStallCycles          462                       # Number of cycles fetch has spent waiting on interrupts, or bad addresses, or out of MSHRs
system.switch_cpus.fetch.PendingQuiesceStallCycles            7                       # Number of stall cycles due to pending quiesce instructions
system.switch_cpus.fetch.PendingTrapStallCycles         2941                       # Number of stall cycles due to pending traps
system.switch_cpus.fetch.SquashCycles           57514                       # Number of cycles fetch has spent squashing
system.switch_cpus.fetch.branchRate          0.006730                       # Number of branch fetches per cycle
system.switch_cpus.fetch.icacheStallCycles      3068804                       # Number of cycles fetch is stalled on an Icache miss
system.switch_cpus.fetch.predictedBranches      1507348                       # Number of branches that fetch has predicted taken
system.switch_cpus.fetch.rate                0.048577                       # Number of inst fetches per cycle
system.switch_cpus.fetch.rateDist::samples    232679906                       # Number of instructions fetched each cycle (Total)
system.switch_cpus.fetch.rateDist::mean      0.094518                       # Number of instructions fetched each cycle (Total)
system.switch_cpus.fetch.rateDist::stdev     0.725563                       # Number of instructions fetched each cycle (Total)
system.switch_cpus.fetch.rateDist::underflows            0      0.00%      0.00% # Number of instructions fetched each cycle (Total)
system.switch_cpus.fetch.rateDist::0        227840108     97.92%     97.92% # Number of instructions fetched each cycle (Total)
system.switch_cpus.fetch.rateDist::1            20592      0.01%     97.93% # Number of instructions fetched each cycle (Total)
system.switch_cpus.fetch.rateDist::2          1415402      0.61%     98.54% # Number of instructions fetched each cycle (Total)
system.switch_cpus.fetch.rateDist::3            20552      0.01%     98.55% # Number of instructions fetched each cycle (Total)
system.switch_cpus.fetch.rateDist::4          1738436      0.75%     99.29% # Number of instructions fetched each cycle (Total)
system.switch_cpus.fetch.rateDist::5            31651      0.01%     99.31% # Number of instructions fetched each cycle (Total)
system.switch_cpus.fetch.rateDist::6           462534      0.20%     99.51% # Number of instructions fetched each cycle (Total)
system.switch_cpus.fetch.rateDist::7            12930      0.01%     99.51% # Number of instructions fetched each cycle (Total)
system.switch_cpus.fetch.rateDist::8          1137701      0.49%    100.00% # Number of instructions fetched each cycle (Total)
system.switch_cpus.fetch.rateDist::overflows            0      0.00%    100.00% # Number of instructions fetched each cycle (Total)
system.switch_cpus.fetch.rateDist::min_value            0                       # Number of instructions fetched each cycle (Total)
system.switch_cpus.fetch.rateDist::max_value            8                       # Number of instructions fetched each cycle (Total)
system.switch_cpus.fetch.rateDist::total    232679906                       # Number of instructions fetched each cycle (Total)
system.switch_cpus.fp_regfile_reads          11022561                       # number of floating regfile reads
system.switch_cpus.fp_regfile_writes              354                       # number of floating regfile writes
system.switch_cpus.idleCycles                   85138                       # Total number of cycles that the CPU has spent unscheduled due to idling
system.switch_cpus.iew.branchMispredicts        10380                       # Number of branch mispredicts detected at execute
system.switch_cpus.iew.exec_branches          1460425                       # Number of branches executed
system.switch_cpus.iew.exec_nop                     0                       # number of nop insts executed
system.switch_cpus.iew.exec_rate             0.089306                       # Inst execution rate
system.switch_cpus.iew.exec_refs             11399563                       # number of memory reference insts executed
system.switch_cpus.iew.exec_stores           11165461                       # Number of stores executed
system.switch_cpus.iew.exec_swp                     0                       # number of swp insts executed
system.switch_cpus.iew.iewBlockCycles          246100                       # Number of cycles IEW is blocking
system.switch_cpus.iew.iewDispLoadInsts        245186                       # Number of dispatched load instructions
system.switch_cpus.iew.iewDispNonSpecInsts          103                       # Number of dispatched non-speculative instructions
system.switch_cpus.iew.iewDispSquashedInsts          872                       # Number of squashed instructions skipped by dispatch
system.switch_cpus.iew.iewDispStoreInsts     11170309                       # Number of dispatched store instructions
system.switch_cpus.iew.iewDispatchedInsts     20900965                       # Number of instructions dispatched to IQ
system.switch_cpus.iew.iewExecLoadInsts        234102                       # Number of load instructions executed
system.switch_cpus.iew.iewExecSquashedInsts        14705                       # Number of squashed instructions skipped in execute
system.switch_cpus.iew.iewExecutedInsts      20787283                       # Number of executed instructions
system.switch_cpus.iew.iewIQFullEvents           1104                       # Number of times the IQ has become full, causing a stall
system.switch_cpus.iew.iewIdleCycles                0                       # Number of cycles IEW is idle
system.switch_cpus.iew.iewLSQFullEvents     108298122                       # Number of times the LSQ has become full, causing a stall
system.switch_cpus.iew.iewSquashCycles          28757                       # Number of cycles IEW is squashing
system.switch_cpus.iew.iewUnblockCycles     108279670                       # Number of cycles IEW is unblocking
system.switch_cpus.iew.lsq.thread0.blockedLoads            0                       # Number of blocked loads due to partial load-store forwarding
system.switch_cpus.iew.lsq.thread0.cacheBlocked          576                       # Number of times an access to memory failed due to the cache being blocked
system.switch_cpus.iew.lsq.thread0.forwLoads         9445                       # Number of loads that had data forwarded from stores
system.switch_cpus.iew.lsq.thread0.ignoredResponses           93                       # Number of memory responses ignored because the instruction is squashed
system.switch_cpus.iew.lsq.thread0.invAddrLoads            0                       # Number of loads ignored due to an invalid address
system.switch_cpus.iew.lsq.thread0.invAddrSwpfs            0                       # Number of software prefetches ignored due to an invalid address
system.switch_cpus.iew.lsq.thread0.memOrderViolation           76                       # Number of memory ordering violations
system.switch_cpus.iew.lsq.thread0.rescheduledLoads            6                       # Number of loads that were rescheduled
system.switch_cpus.iew.lsq.thread0.squashedLoads        44723                       # Number of loads squashed
system.switch_cpus.iew.lsq.thread0.squashedStores       678884                       # Number of stores squashed
system.switch_cpus.iew.memOrderViolationEvents           76                       # Number of memory order violations
system.switch_cpus.iew.predictedNotTakenIncorrect         8398                       # Number of branches that were predicted not taken incorrectly
system.switch_cpus.iew.predictedTakenIncorrect         1982                       # Number of branches that were predicted taken incorrectly
system.switch_cpus.iew.wb_consumers          11907170                       # num instructions consuming a value
system.switch_cpus.iew.wb_count              20145394                       # cumulative count of insts written-back
system.switch_cpus.iew.wb_fanout             0.657273                       # average fanout of values written-back
system.switch_cpus.iew.wb_producers           7826267                       # num instructions producing a value
system.switch_cpus.iew.wb_rate               0.086548                       # insts written-back per cycle
system.switch_cpus.iew.wb_sent               20777352                       # cumulative count of insts sent to commit
system.switch_cpus.int_regfile_reads         32993217                       # number of integer regfile reads
system.switch_cpus.int_regfile_writes         8149762                       # number of integer regfile writes
system.switch_cpus.ipc                       0.042962                       # IPC: Instructions Per Cycle
system.switch_cpus.ipc_total                 0.042962                       # IPC: Total IPC of All Threads
system.switch_cpus.iq.FU_type_0::No_OpClass         6704      0.03%      0.03% # Type of FU issued
system.switch_cpus.iq.FU_type_0::IntAlu       9389102     45.14%     45.17% # Type of FU issued
system.switch_cpus.iq.FU_type_0::IntMult          682      0.00%     45.17% # Type of FU issued
system.switch_cpus.iq.FU_type_0::IntDiv          1440      0.01%     45.18% # Type of FU issued
system.switch_cpus.iq.FU_type_0::FloatAdd           37      0.00%     45.18% # Type of FU issued
system.switch_cpus.iq.FU_type_0::FloatCmp            0      0.00%     45.18% # Type of FU issued
system.switch_cpus.iq.FU_type_0::FloatCvt           64      0.00%     45.18% # Type of FU issued
system.switch_cpus.iq.FU_type_0::FloatMult            0      0.00%     45.18% # Type of FU issued
system.switch_cpus.iq.FU_type_0::FloatMultAcc            0      0.00%     45.18% # Type of FU issued
system.switch_cpus.iq.FU_type_0::FloatDiv            0      0.00%     45.18% # Type of FU issued
system.switch_cpus.iq.FU_type_0::FloatMisc            0      0.00%     45.18% # Type of FU issued
system.switch_cpus.iq.FU_type_0::FloatSqrt            0      0.00%     45.18% # Type of FU issued
system.switch_cpus.iq.FU_type_0::SimdAdd            0      0.00%     45.18% # Type of FU issued
system.switch_cpus.iq.FU_type_0::SimdAddAcc            0      0.00%     45.18% # Type of FU issued
system.switch_cpus.iq.FU_type_0::SimdAlu            6      0.00%     45.18% # Type of FU issued
system.switch_cpus.iq.FU_type_0::SimdCmp            0      0.00%     45.18% # Type of FU issued
system.switch_cpus.iq.FU_type_0::SimdCvt           41      0.00%     45.18% # Type of FU issued
system.switch_cpus.iq.FU_type_0::SimdMisc           75      0.00%     45.18% # Type of FU issued
system.switch_cpus.iq.FU_type_0::SimdMult            0      0.00%     45.18% # Type of FU issued
system.switch_cpus.iq.FU_type_0::SimdMultAcc            0      0.00%     45.18% # Type of FU issued
system.switch_cpus.iq.FU_type_0::SimdShift            0      0.00%     45.18% # Type of FU issued
system.switch_cpus.iq.FU_type_0::SimdShiftAcc            0      0.00%     45.18% # Type of FU issued
system.switch_cpus.iq.FU_type_0::SimdDiv            0      0.00%     45.18% # Type of FU issued
system.switch_cpus.iq.FU_type_0::SimdSqrt            0      0.00%     45.18% # Type of FU issued
system.switch_cpus.iq.FU_type_0::SimdFloatAdd            0      0.00%     45.18% # Type of FU issued
system.switch_cpus.iq.FU_type_0::SimdFloatAlu            0      0.00%     45.18% # Type of FU issued
system.switch_cpus.iq.FU_type_0::SimdFloatCmp            0      0.00%     45.18% # Type of FU issued
system.switch_cpus.iq.FU_type_0::SimdFloatCvt            0      0.00%     45.18% # Type of FU issued
system.switch_cpus.iq.FU_type_0::SimdFloatDiv            0      0.00%     45.18% # Type of FU issued
system.switch_cpus.iq.FU_type_0::SimdFloatMisc            0      0.00%     45.18% # Type of FU issued
system.switch_cpus.iq.FU_type_0::SimdFloatMult            0      0.00%     45.18% # Type of FU issued
system.switch_cpus.iq.FU_type_0::SimdFloatMultAcc            0      0.00%     45.18% # Type of FU issued
system.switch_cpus.iq.FU_type_0::SimdFloatSqrt            0      0.00%     45.18% # Type of FU issued
system.switch_cpus.iq.FU_type_0::SimdReduceAdd            0      0.00%     45.18% # Type of FU issued
system.switch_cpus.iq.FU_type_0::SimdReduceAlu            0      0.00%     45.18% # Type of FU issued
system.switch_cpus.iq.FU_type_0::SimdReduceCmp            0      0.00%     45.18% # Type of FU issued
system.switch_cpus.iq.FU_type_0::SimdFloatReduceAdd            0      0.00%     45.18% # Type of FU issued
system.switch_cpus.iq.FU_type_0::SimdFloatReduceCmp            0      0.00%     45.18% # Type of FU issued
system.switch_cpus.iq.FU_type_0::SimdAes            0      0.00%     45.18% # Type of FU issued
system.switch_cpus.iq.FU_type_0::SimdAesMix            0      0.00%     45.18% # Type of FU issued
system.switch_cpus.iq.FU_type_0::SimdSha1Hash            0      0.00%     45.18% # Type of FU issued
system.switch_cpus.iq.FU_type_0::SimdSha1Hash2            0      0.00%     45.18% # Type of FU issued
system.switch_cpus.iq.FU_type_0::SimdSha256Hash            0      0.00%     45.18% # Type of FU issued
system.switch_cpus.iq.FU_type_0::SimdSha256Hash2            0      0.00%     45.18% # Type of FU issued
system.switch_cpus.iq.FU_type_0::SimdShaSigma2            0      0.00%     45.18% # Type of FU issued
system.switch_cpus.iq.FU_type_0::SimdShaSigma3            0      0.00%     45.18% # Type of FU issued
system.switch_cpus.iq.FU_type_0::SimdPredAlu            0      0.00%     45.18% # Type of FU issued
system.switch_cpus.iq.FU_type_0::MemRead       237007      1.14%     46.32% # Type of FU issued
system.switch_cpus.iq.FU_type_0::MemWrite       144462      0.69%     47.01% # Type of FU issued
system.switch_cpus.iq.FU_type_0::FloatMemRead          160      0.00%     47.01% # Type of FU issued
system.switch_cpus.iq.FU_type_0::FloatMemWrite     11022209     52.99%    100.00% # Type of FU issued
system.switch_cpus.iq.FU_type_0::IprAccess            0      0.00%    100.00% # Type of FU issued
system.switch_cpus.iq.FU_type_0::InstPrefetch            0      0.00%    100.00% # Type of FU issued
system.switch_cpus.iq.FU_type_0::total       20801989                       # Type of FU issued
system.switch_cpus.iq.fp_alu_accesses        11063094                       # Number of floating point alu accesses
system.switch_cpus.iq.fp_inst_queue_reads     22085711                       # Number of floating instruction queue reads
system.switch_cpus.iq.fp_inst_queue_wakeup_accesses     10395709                       # Number of floating instruction queue wakeup accesses
system.switch_cpus.iq.fp_inst_queue_writes     11690051                       # Number of floating instruction queue writes
system.switch_cpus.iq.fu_busy_cnt               70484                       # FU busy when requested
system.switch_cpus.iq.fu_busy_rate           0.003388                       # FU busy rate (busy events/executed inst)
system.switch_cpus.iq.fu_full::No_OpClass            0      0.00%      0.00% # attempts to use FU when none available
system.switch_cpus.iq.fu_full::IntAlu            7519     10.67%     10.67% # attempts to use FU when none available
system.switch_cpus.iq.fu_full::IntMult              0      0.00%     10.67% # attempts to use FU when none available
system.switch_cpus.iq.fu_full::IntDiv               0      0.00%     10.67% # attempts to use FU when none available
system.switch_cpus.iq.fu_full::FloatAdd             0      0.00%     10.67% # attempts to use FU when none available
system.switch_cpus.iq.fu_full::FloatCmp             0      0.00%     10.67% # attempts to use FU when none available
system.switch_cpus.iq.fu_full::FloatCvt             0      0.00%     10.67% # attempts to use FU when none available
system.switch_cpus.iq.fu_full::FloatMult            0      0.00%     10.67% # attempts to use FU when none available
system.switch_cpus.iq.fu_full::FloatMultAcc            0      0.00%     10.67% # attempts to use FU when none available
system.switch_cpus.iq.fu_full::FloatDiv             0      0.00%     10.67% # attempts to use FU when none available
system.switch_cpus.iq.fu_full::FloatMisc            0      0.00%     10.67% # attempts to use FU when none available
system.switch_cpus.iq.fu_full::FloatSqrt            0      0.00%     10.67% # attempts to use FU when none available
system.switch_cpus.iq.fu_full::SimdAdd              0      0.00%     10.67% # attempts to use FU when none available
system.switch_cpus.iq.fu_full::SimdAddAcc            0      0.00%     10.67% # attempts to use FU when none available
system.switch_cpus.iq.fu_full::SimdAlu              0      0.00%     10.67% # attempts to use FU when none available
system.switch_cpus.iq.fu_full::SimdCmp              0      0.00%     10.67% # attempts to use FU when none available
system.switch_cpus.iq.fu_full::SimdCvt              0      0.00%     10.67% # attempts to use FU when none available
system.switch_cpus.iq.fu_full::SimdMisc             0      0.00%     10.67% # attempts to use FU when none available
system.switch_cpus.iq.fu_full::SimdMult             0      0.00%     10.67% # attempts to use FU when none available
system.switch_cpus.iq.fu_full::SimdMultAcc            0      0.00%     10.67% # attempts to use FU when none available
system.switch_cpus.iq.fu_full::SimdShift            0      0.00%     10.67% # attempts to use FU when none available
system.switch_cpus.iq.fu_full::SimdShiftAcc            0      0.00%     10.67% # attempts to use FU when none available
system.switch_cpus.iq.fu_full::SimdDiv              0      0.00%     10.67% # attempts to use FU when none available
system.switch_cpus.iq.fu_full::SimdSqrt             0      0.00%     10.67% # attempts to use FU when none available
system.switch_cpus.iq.fu_full::SimdFloatAdd            0      0.00%     10.67% # attempts to use FU when none available
system.switch_cpus.iq.fu_full::SimdFloatAlu            0      0.00%     10.67% # attempts to use FU when none available
system.switch_cpus.iq.fu_full::SimdFloatCmp            0      0.00%     10.67% # attempts to use FU when none available
system.switch_cpus.iq.fu_full::SimdFloatCvt            0      0.00%     10.67% # attempts to use FU when none available
system.switch_cpus.iq.fu_full::SimdFloatDiv            0      0.00%     10.67% # attempts to use FU when none available
system.switch_cpus.iq.fu_full::SimdFloatMisc            0      0.00%     10.67% # attempts to use FU when none available
system.switch_cpus.iq.fu_full::SimdFloatMult            0      0.00%     10.67% # attempts to use FU when none available
system.switch_cpus.iq.fu_full::SimdFloatMultAcc            0      0.00%     10.67% # attempts to use FU when none available
system.switch_cpus.iq.fu_full::SimdFloatSqrt            0      0.00%     10.67% # attempts to use FU when none available
system.switch_cpus.iq.fu_full::SimdReduceAdd            0      0.00%     10.67% # attempts to use FU when none available
system.switch_cpus.iq.fu_full::SimdReduceAlu            0      0.00%     10.67% # attempts to use FU when none available
system.switch_cpus.iq.fu_full::SimdReduceCmp            0      0.00%     10.67% # attempts to use FU when none available
system.switch_cpus.iq.fu_full::SimdFloatReduceAdd            0      0.00%     10.67% # attempts to use FU when none available
system.switch_cpus.iq.fu_full::SimdFloatReduceCmp            0      0.00%     10.67% # attempts to use FU when none available
system.switch_cpus.iq.fu_full::SimdAes              0      0.00%     10.67% # attempts to use FU when none available
system.switch_cpus.iq.fu_full::SimdAesMix            0      0.00%     10.67% # attempts to use FU when none available
system.switch_cpus.iq.fu_full::SimdSha1Hash            0      0.00%     10.67% # attempts to use FU when none available
system.switch_cpus.iq.fu_full::SimdSha1Hash2            0      0.00%     10.67% # attempts to use FU when none available
system.switch_cpus.iq.fu_full::SimdSha256Hash            0      0.00%     10.67% # attempts to use FU when none available
system.switch_cpus.iq.fu_full::SimdSha256Hash2            0      0.00%     10.67% # attempts to use FU when none available
system.switch_cpus.iq.fu_full::SimdShaSigma2            0      0.00%     10.67% # attempts to use FU when none available
system.switch_cpus.iq.fu_full::SimdShaSigma3            0      0.00%     10.67% # attempts to use FU when none available
system.switch_cpus.iq.fu_full::SimdPredAlu            0      0.00%     10.67% # attempts to use FU when none available
system.switch_cpus.iq.fu_full::MemRead          21800     30.93%     41.60% # attempts to use FU when none available
system.switch_cpus.iq.fu_full::MemWrite           689      0.98%     42.57% # attempts to use FU when none available
system.switch_cpus.iq.fu_full::FloatMemRead           16      0.02%     42.60% # attempts to use FU when none available
system.switch_cpus.iq.fu_full::FloatMemWrite        40460     57.40%    100.00% # attempts to use FU when none available
system.switch_cpus.iq.fu_full::IprAccess            0      0.00%    100.00% # attempts to use FU when none available
system.switch_cpus.iq.fu_full::InstPrefetch            0      0.00%    100.00% # attempts to use FU when none available
system.switch_cpus.iq.int_alu_accesses        9802675                       # Number of integer alu accesses
system.switch_cpus.iq.int_inst_queue_reads    252271244                       # Number of integer instruction queue reads
system.switch_cpus.iq.int_inst_queue_wakeup_accesses      9749685                       # Number of integer instruction queue wakeup accesses
system.switch_cpus.iq.int_inst_queue_writes     10682664                       # Number of integer instruction queue writes
system.switch_cpus.iq.iqInstsAdded           20900825                       # Number of instructions added to the IQ (excludes non-spec)
system.switch_cpus.iq.iqInstsIssued          20801989                       # Number of instructions issued
system.switch_cpus.iq.iqNonSpecInstsAdded          140                       # Number of non-speculative instructions added to the IQ
system.switch_cpus.iq.iqSquashedInstsExamined      1471691                       # Number of squashed instructions iterated over during squash; mainly for profiling
system.switch_cpus.iq.iqSquashedInstsIssued         2588                       # Number of squashed instructions issued
system.switch_cpus.iq.iqSquashedNonSpecRemoved           74                       # Number of squashed non-spec instructions that were removed
system.switch_cpus.iq.iqSquashedOperandsExamined      2961535                       # Number of squashed operands that are examined and possibly removed from graph
system.switch_cpus.iq.issued_per_cycle::samples    232679906                       # Number of insts issued each cycle
system.switch_cpus.iq.issued_per_cycle::mean     0.089402                       # Number of insts issued each cycle
system.switch_cpus.iq.issued_per_cycle::stdev     0.439470                       # Number of insts issued each cycle
system.switch_cpus.iq.issued_per_cycle::underflows            0      0.00%      0.00% # Number of insts issued each cycle
system.switch_cpus.iq.issued_per_cycle::0    218617394     93.96%     93.96% # Number of insts issued each cycle
system.switch_cpus.iq.issued_per_cycle::1     10920357      4.69%     98.65% # Number of insts issued each cycle
system.switch_cpus.iq.issued_per_cycle::2      1247714      0.54%     99.19% # Number of insts issued each cycle
system.switch_cpus.iq.issued_per_cycle::3       713947      0.31%     99.49% # Number of insts issued each cycle
system.switch_cpus.iq.issued_per_cycle::4       951674      0.41%     99.90% # Number of insts issued each cycle
system.switch_cpus.iq.issued_per_cycle::5        52230      0.02%     99.92% # Number of insts issued each cycle
system.switch_cpus.iq.issued_per_cycle::6        85110      0.04%     99.96% # Number of insts issued each cycle
system.switch_cpus.iq.issued_per_cycle::7        65983      0.03%     99.99% # Number of insts issued each cycle
system.switch_cpus.iq.issued_per_cycle::8        25497      0.01%    100.00% # Number of insts issued each cycle
system.switch_cpus.iq.issued_per_cycle::overflows            0      0.00%    100.00% # Number of insts issued each cycle
system.switch_cpus.iq.issued_per_cycle::min_value            0                       # Number of insts issued each cycle
system.switch_cpus.iq.issued_per_cycle::max_value            8                       # Number of insts issued each cycle
system.switch_cpus.iq.issued_per_cycle::total    232679906                       # Number of insts issued each cycle
system.switch_cpus.iq.rate                   0.089369                       # Inst issue rate
system.switch_cpus.iq.vec_alu_accesses              0                       # Number of vector alu accesses
system.switch_cpus.iq.vec_inst_queue_reads            0                       # Number of vector instruction queue reads
system.switch_cpus.iq.vec_inst_queue_wakeup_accesses            0                       # Number of vector instruction queue wakeup accesses
system.switch_cpus.iq.vec_inst_queue_writes            0                       # Number of vector instruction queue writes
system.switch_cpus.itb.rdAccesses                   0                       # TLB accesses on read requests
system.switch_cpus.itb.rdMisses                     0                       # TLB misses on read requests
system.switch_cpus.itb.wrAccesses             3003110                       # TLB accesses on write requests
system.switch_cpus.itb.wrMisses                   562                       # TLB misses on write requests
system.switch_cpus.memDep0.conflictingLoads         7878                       # Number of conflicting loads.
system.switch_cpus.memDep0.conflictingStores         6644                       # Number of conflicting stores.
system.switch_cpus.memDep0.insertedLoads       245186                       # Number of loads inserted to the mem dependence unit.
system.switch_cpus.memDep0.insertedStores     11170309                       # Number of stores inserted to the mem dependence unit.
system.switch_cpus.misc_regfile_reads        14341595                       # number of misc regfile reads
system.switch_cpus.misc_regfile_writes             37                       # number of misc regfile writes
system.switch_cpus.numCycles                232765044                       # number of cpu cycles simulated
system.switch_cpus.numWorkItemsCompleted            0                       # number of work items this cpu completed
system.switch_cpus.numWorkItemsStarted              0                       # number of work items this cpu started
system.switch_cpus.rename.BlockCycles       108600262                       # Number of cycles rename is blocking
system.switch_cpus.rename.CommittedMaps      13553646                       # Number of HB maps that are committed
system.switch_cpus.rename.IQFullEvents         224816                       # Number of times rename has blocked due to IQ full
system.switch_cpus.rename.IdleCycles          1801555                       # Number of cycles rename is idle
system.switch_cpus.rename.LQFullEvents           4415                       # Number of times rename has blocked due to LQ full
system.switch_cpus.rename.ROBFullEvents          5088                       # Number of times rename has blocked due to ROB full
system.switch_cpus.rename.RenameLookups      66691528                       # Number of register rename lookups that rename has made
system.switch_cpus.rename.RenamedInsts       20980644                       # Number of instructions processed by rename
system.switch_cpus.rename.RenamedOperands     14753160                       # Number of destination operands rename has renamed
system.switch_cpus.rename.RunCycles           1911695                       # Number of cycles rename is running
system.switch_cpus.rename.SQFullEvents      120101266                       # Number of times rename has blocked due to SQ full
system.switch_cpus.rename.SquashCycles          28757                       # Number of cycles rename is squashing
system.switch_cpus.rename.UnblockCycles     120332667                       # Number of cycles rename is unblocking
system.switch_cpus.rename.UndoneMaps          1199514                       # Number of HB maps that are undone due to squashing
system.switch_cpus.rename.fp_rename_lookups     11042827                       # Number of floating rename lookups
system.switch_cpus.rename.int_rename_lookups     33354951                       # Number of integer rename lookups
system.switch_cpus.rename.serializeStallCycles         4969                       # count of cycles rename stalled for serializing inst
system.switch_cpus.rename.serializingInsts          117                       # count of serializing insts renamed
system.switch_cpus.rename.skidInsts          14623590                       # count of insts added to the skid buffer
system.switch_cpus.rename.tempSerializingInsts           92                       # count of temporary serializing insts renamed
system.switch_cpus.rob.rob_reads            253000854                       # The number of ROB reads
system.switch_cpus.rob.rob_writes            41950650                       # The number of ROB writes
system.switch_cpus.timesIdled                    1190                       # Number of times that the entire CPU went into an idle state and unscheduled itself
system.tol2bus.snoop_filter.hit_multi_requests            1                       # Number of requests hitting in the snoop filter with multiple (>1) holders of the requested data.
system.tol2bus.snoop_filter.hit_multi_snoops            0                       # Number of snoops hitting in the snoop filter with multiple (>1) holders of the requested data.
system.tol2bus.snoop_filter.hit_single_requests      1305177                       # Number of requests hitting in the snoop filter with a single holder of the requested data.
system.tol2bus.snoop_filter.hit_single_snoops      1301166                       # Number of snoops hitting in the snoop filter with a single holder of the requested data.
system.tol2bus.snoop_filter.tot_requests      2610482                       # Total number of requests made to the snoop filter.
system.tol2bus.snoop_filter.tot_snoops        1301166                       # Total number of snoops made to the snoop filter.
system.membus.trans_dist::ReadResp               4132                       # Transaction distribution
system.membus.trans_dist::WritebackDirty      1297524                       # Transaction distribution
system.membus.trans_dist::CleanEvict             3852                       # Transaction distribution
system.membus.trans_dist::ReadExReq           1297603                       # Transaction distribution
system.membus.trans_dist::ReadExResp          1297603                       # Transaction distribution
system.membus.trans_dist::ReadSharedReq          4132                       # Transaction distribution
system.membus.pkt_count_system.l2.mem_side::system.mem_ctrls.port      3904846                       # Packet count per connected master and slave (bytes)
system.membus.pkt_count_system.l2.mem_side::total      3904846                       # Packet count per connected master and slave (bytes)
system.membus.pkt_count::total                3904846                       # Packet count per connected master and slave (bytes)
system.membus.pkt_size_system.l2.mem_side::system.mem_ctrls.port    166352576                       # Cumulative packet size per connected master and slave (bytes)
system.membus.pkt_size_system.l2.mem_side::total    166352576                       # Cumulative packet size per connected master and slave (bytes)
system.membus.pkt_size::total               166352576                       # Cumulative packet size per connected master and slave (bytes)
system.membus.snoops                                0                       # Total snoops (count)
system.membus.snoopTraffic                          0                       # Total snoop traffic (bytes)
system.membus.snoop_fanout::samples           1301735                       # Request fanout histogram
system.membus.snoop_fanout::mean                    0                       # Request fanout histogram
system.membus.snoop_fanout::stdev                   0                       # Request fanout histogram
system.membus.snoop_fanout::underflows              0      0.00%      0.00% # Request fanout histogram
system.membus.snoop_fanout::0                 1301735    100.00%    100.00% # Request fanout histogram
system.membus.snoop_fanout::1                       0      0.00%    100.00% # Request fanout histogram
system.membus.snoop_fanout::overflows               0      0.00%    100.00% # Request fanout histogram
system.membus.snoop_fanout::min_value               0                       # Request fanout histogram
system.membus.snoop_fanout::max_value               0                       # Request fanout histogram
system.membus.snoop_fanout::total             1301735                       # Request fanout histogram
system.membus.reqLayer2.occupancy          7794950000                       # Layer occupancy (ticks)
system.membus.reqLayer2.utilization               6.7                       # Layer utilization (%)
system.membus.respLayer1.occupancy         6861542750                       # Layer occupancy (ticks)
system.membus.respLayer1.utilization              5.9                       # Layer utilization (%)
system.membus.power_state.pwrStateResidencyTicks::UNDEFINED 116382532500                       # Cumulative time (in ticks) in various power states
system.switch_cpus.dtb.walker.power_state.pwrStateResidencyTicks::UNDEFINED 116382532500                       # Cumulative time (in ticks) in various power states
system.switch_cpus.itb.walker.power_state.pwrStateResidencyTicks::UNDEFINED 116382532500                       # Cumulative time (in ticks) in various power states
system.switch_cpus.power_state.pwrStateResidencyTicks::OFF 116382532500                       # Cumulative time (in ticks) in various power states
system.tol2bus.trans_dist::ReadResp              7417                       # Transaction distribution
system.tol2bus.trans_dist::WritebackDirty      2596783                       # Transaction distribution
system.tol2bus.trans_dist::WritebackClean         2232                       # Transaction distribution
system.tol2bus.trans_dist::CleanEvict         1306209                       # Transaction distribution
system.tol2bus.trans_dist::ReadExReq          1297888                       # Transaction distribution
system.tol2bus.trans_dist::ReadExResp         1297888                       # Transaction distribution
system.tol2bus.trans_dist::ReadCleanReq          2296                       # Transaction distribution
system.tol2bus.trans_dist::ReadSharedReq         5121                       # Transaction distribution
system.tol2bus.pkt_count_system.cpu.icache.mem_side::system.l2.cpu_side         6824                       # Packet count per connected master and slave (bytes)
system.tol2bus.pkt_count_system.cpu.dcache.mem_side::system.l2.cpu_side      3908963                       # Packet count per connected master and slave (bytes)
system.tol2bus.pkt_count::total               3915787                       # Packet count per connected master and slave (bytes)
system.tol2bus.pkt_size_system.cpu.icache.mem_side::system.l2.cpu_side       289792                       # Cumulative packet size per connected master and slave (bytes)
system.tol2bus.pkt_size_system.cpu.dcache.mem_side::system.l2.cpu_side    166545152                       # Cumulative packet size per connected master and slave (bytes)
system.tol2bus.pkt_size::total              166834944                       # Cumulative packet size per connected master and slave (bytes)
system.tol2bus.snoops                         2600047                       # Total snoops (count)
system.tol2bus.snoopTraffic                  83041536                       # Total snoop traffic (bytes)
system.tol2bus.snoop_fanout::samples          3905352                       # Request fanout histogram
system.tol2bus.snoop_fanout::mean            0.333175                       # Request fanout histogram
system.tol2bus.snoop_fanout::stdev           0.471349                       # Request fanout histogram
system.tol2bus.snoop_fanout::underflows             0      0.00%      0.00% # Request fanout histogram
system.tol2bus.snoop_fanout::0                2604185     66.68%     66.68% # Request fanout histogram
system.tol2bus.snoop_fanout::1                1301167     33.32%    100.00% # Request fanout histogram
system.tol2bus.snoop_fanout::2                      0      0.00%    100.00% # Request fanout histogram
system.tol2bus.snoop_fanout::3                      0      0.00%    100.00% # Request fanout histogram
system.tol2bus.snoop_fanout::4                      0      0.00%    100.00% # Request fanout histogram
system.tol2bus.snoop_fanout::overflows              0      0.00%    100.00% # Request fanout histogram
system.tol2bus.snoop_fanout::min_value              0                       # Request fanout histogram
system.tol2bus.snoop_fanout::max_value              1                       # Request fanout histogram
system.tol2bus.snoop_fanout::total            3905352                       # Request fanout histogram
system.tol2bus.reqLayer0.occupancy         2606730500                       # Layer occupancy (ticks)
system.tol2bus.reqLayer0.utilization              2.2                       # Layer utilization (%)
system.tol2bus.respLayer1.occupancy        1954512000                       # Layer occupancy (ticks)
system.tol2bus.respLayer1.utilization             1.7                       # Layer utilization (%)
system.tol2bus.respLayer0.occupancy           3454473                       # Layer occupancy (ticks)
system.tol2bus.respLayer0.utilization             0.0                       # Layer utilization (%)
system.tol2bus.power_state.pwrStateResidencyTicks::UNDEFINED 116382532500                       # Cumulative time (in ticks) in various power states
system.voltage_domain.voltage                       1                       # Voltage in Volts
system.clk_domain.clock                          1000                       # Clock period in ticks
system.l2.demand_hits::.switch_cpus.inst         1084                       # number of demand (read+write) hits
system.l2.demand_hits::.switch_cpus.data         2485                       # number of demand (read+write) hits
system.l2.demand_hits::total                     3569                       # number of demand (read+write) hits
system.l2.overall_hits::.switch_cpus.inst         1084                       # number of overall hits
system.l2.overall_hits::.switch_cpus.data         2485                       # number of overall hits
system.l2.overall_hits::total                    3569                       # number of overall hits
system.l2.demand_misses::.cpu.inst                  2                       # number of demand (read+write) misses
system.l2.demand_misses::.cpu.data                  1                       # number of demand (read+write) misses
system.l2.demand_misses::.switch_cpus.inst         1210                       # number of demand (read+write) misses
system.l2.demand_misses::.switch_cpus.data      1300523                       # number of demand (read+write) misses
system.l2.demand_misses::total                1301736                       # number of demand (read+write) misses
system.l2.overall_misses::.cpu.inst                 2                       # number of overall misses
system.l2.overall_misses::.cpu.data                 1                       # number of overall misses
system.l2.overall_misses::.switch_cpus.inst         1210                       # number of overall misses
system.l2.overall_misses::.switch_cpus.data      1300523                       # number of overall misses
system.l2.overall_misses::total               1301736                       # number of overall misses
system.l2.demand_miss_latency::.switch_cpus.inst     96789000                       # number of demand (read+write) miss cycles
system.l2.demand_miss_latency::.switch_cpus.data 103607741500                       # number of demand (read+write) miss cycles
system.l2.demand_miss_latency::total     103704530500                       # number of demand (read+write) miss cycles
system.l2.overall_miss_latency::.switch_cpus.inst     96789000                       # number of overall miss cycles
system.l2.overall_miss_latency::.switch_cpus.data 103607741500                       # number of overall miss cycles
system.l2.overall_miss_latency::total    103704530500                       # number of overall miss cycles
system.l2.demand_accesses::.cpu.inst                2                       # number of demand (read+write) accesses
system.l2.demand_accesses::.cpu.data                1                       # number of demand (read+write) accesses
system.l2.demand_accesses::.switch_cpus.inst         2294                       # number of demand (read+write) accesses
system.l2.demand_accesses::.switch_cpus.data      1303008                       # number of demand (read+write) accesses
system.l2.demand_accesses::total              1305305                       # number of demand (read+write) accesses
system.l2.overall_accesses::.cpu.inst               2                       # number of overall (read+write) accesses
system.l2.overall_accesses::.cpu.data               1                       # number of overall (read+write) accesses
system.l2.overall_accesses::.switch_cpus.inst         2294                       # number of overall (read+write) accesses
system.l2.overall_accesses::.switch_cpus.data      1303008                       # number of overall (read+write) accesses
system.l2.overall_accesses::total             1305305                       # number of overall (read+write) accesses
system.l2.demand_miss_rate::.cpu.inst               1                       # miss rate for demand accesses
system.l2.demand_miss_rate::.cpu.data               1                       # miss rate for demand accesses
system.l2.demand_miss_rate::.switch_cpus.inst     0.527463                       # miss rate for demand accesses
system.l2.demand_miss_rate::.switch_cpus.data     0.998093                       # miss rate for demand accesses
system.l2.demand_miss_rate::total            0.997266                       # miss rate for demand accesses
system.l2.overall_miss_rate::.cpu.inst              1                       # miss rate for overall accesses
system.l2.overall_miss_rate::.cpu.data              1                       # miss rate for overall accesses
system.l2.overall_miss_rate::.switch_cpus.inst     0.527463                       # miss rate for overall accesses
system.l2.overall_miss_rate::.switch_cpus.data     0.998093                       # miss rate for overall accesses
system.l2.overall_miss_rate::total           0.997266                       # miss rate for overall accesses
system.l2.demand_avg_miss_latency::.switch_cpus.inst 79990.909091                       # average overall miss latency
system.l2.demand_avg_miss_latency::.switch_cpus.data 79666.212362                       # average overall miss latency
system.l2.demand_avg_miss_latency::total 79666.330577                       # average overall miss latency
system.l2.overall_avg_miss_latency::.switch_cpus.inst 79990.909091                       # average overall miss latency
system.l2.overall_avg_miss_latency::.switch_cpus.data 79666.212362                       # average overall miss latency
system.l2.overall_avg_miss_latency::total 79666.330577                       # average overall miss latency
system.l2.blocked_cycles::no_mshrs                  0                       # number of cycles access was blocked
system.l2.blocked_cycles::no_targets                0                       # number of cycles access was blocked
system.l2.blocked::no_mshrs                         0                       # number of cycles access was blocked
system.l2.blocked::no_targets                       0                       # number of cycles access was blocked
system.l2.avg_blocked_cycles::no_mshrs            nan                       # average number of cycles each access was blocked
system.l2.avg_blocked_cycles::no_targets          nan                       # average number of cycles each access was blocked
system.l2.writebacks::.writebacks             1297524                       # number of writebacks
system.l2.writebacks::total                   1297524                       # number of writebacks
system.l2.demand_mshr_hits::.switch_cpus.inst            1                       # number of demand (read+write) MSHR hits
system.l2.demand_mshr_hits::total                   1                       # number of demand (read+write) MSHR hits
system.l2.overall_mshr_hits::.switch_cpus.inst            1                       # number of overall MSHR hits
system.l2.overall_mshr_hits::total                  1                       # number of overall MSHR hits
system.l2.demand_mshr_misses::.switch_cpus.inst         1209                       # number of demand (read+write) MSHR misses
system.l2.demand_mshr_misses::.switch_cpus.data      1300523                       # number of demand (read+write) MSHR misses
system.l2.demand_mshr_misses::total           1301732                       # number of demand (read+write) MSHR misses
system.l2.overall_mshr_misses::.switch_cpus.inst         1209                       # number of overall MSHR misses
system.l2.overall_mshr_misses::.switch_cpus.data      1300523                       # number of overall MSHR misses
system.l2.overall_mshr_misses::total          1301732                       # number of overall MSHR misses
system.l2.demand_mshr_miss_latency::.switch_cpus.inst     84602500                       # number of demand (read+write) MSHR miss cycles
system.l2.demand_mshr_miss_latency::.switch_cpus.data  90602511500                       # number of demand (read+write) MSHR miss cycles
system.l2.demand_mshr_miss_latency::total  90687114000                       # number of demand (read+write) MSHR miss cycles
system.l2.overall_mshr_miss_latency::.switch_cpus.inst     84602500                       # number of overall MSHR miss cycles
system.l2.overall_mshr_miss_latency::.switch_cpus.data  90602511500                       # number of overall MSHR miss cycles
system.l2.overall_mshr_miss_latency::total  90687114000                       # number of overall MSHR miss cycles
system.l2.demand_mshr_miss_rate::.switch_cpus.inst     0.527027                       # mshr miss rate for demand accesses
system.l2.demand_mshr_miss_rate::.switch_cpus.data     0.998093                       # mshr miss rate for demand accesses
system.l2.demand_mshr_miss_rate::total       0.997263                       # mshr miss rate for demand accesses
system.l2.overall_mshr_miss_rate::.switch_cpus.inst     0.527027                       # mshr miss rate for overall accesses
system.l2.overall_mshr_miss_rate::.switch_cpus.data     0.998093                       # mshr miss rate for overall accesses
system.l2.overall_mshr_miss_rate::total      0.997263                       # mshr miss rate for overall accesses
system.l2.demand_avg_mshr_miss_latency::.switch_cpus.inst 69977.253929                       # average overall mshr miss latency
system.l2.demand_avg_mshr_miss_latency::.switch_cpus.data 69666.212362                       # average overall mshr miss latency
system.l2.demand_avg_mshr_miss_latency::total 69666.501246                       # average overall mshr miss latency
system.l2.overall_avg_mshr_miss_latency::.switch_cpus.inst 69977.253929                       # average overall mshr miss latency
system.l2.overall_avg_mshr_miss_latency::.switch_cpus.data 69666.212362                       # average overall mshr miss latency
system.l2.overall_avg_mshr_miss_latency::total 69666.501246                       # average overall mshr miss latency
system.l2.replacements                        2600047                       # number of replacements
system.l2.WritebackDirty_hits::.writebacks      1299259                       # number of WritebackDirty hits
system.l2.WritebackDirty_hits::total          1299259                       # number of WritebackDirty hits
system.l2.WritebackDirty_accesses::.writebacks      1299259                       # number of WritebackDirty accesses(hits+misses)
system.l2.WritebackDirty_accesses::total      1299259                       # number of WritebackDirty accesses(hits+misses)
system.l2.WritebackClean_hits::.writebacks         2232                       # number of WritebackClean hits
system.l2.WritebackClean_hits::total             2232                       # number of WritebackClean hits
system.l2.WritebackClean_accesses::.writebacks         2232                       # number of WritebackClean accesses(hits+misses)
system.l2.WritebackClean_accesses::total         2232                       # number of WritebackClean accesses(hits+misses)
system.l2.CleanEvict_mshr_misses::.writebacks         2495                       # number of CleanEvict MSHR misses
system.l2.CleanEvict_mshr_misses::total          2495                       # number of CleanEvict MSHR misses
system.l2.CleanEvict_mshr_miss_rate::.writebacks          inf                       # mshr miss rate for CleanEvict accesses
system.l2.CleanEvict_mshr_miss_rate::total          inf                       # mshr miss rate for CleanEvict accesses
system.l2.ReadExReq_hits::.switch_cpus.data          285                       # number of ReadExReq hits
system.l2.ReadExReq_hits::total                   285                       # number of ReadExReq hits
system.l2.ReadExReq_misses::.cpu.data               1                       # number of ReadExReq misses
system.l2.ReadExReq_misses::.switch_cpus.data      1297602                       # number of ReadExReq misses
system.l2.ReadExReq_misses::total             1297603                       # number of ReadExReq misses
system.l2.ReadExReq_miss_latency::.switch_cpus.data 103373062500                       # number of ReadExReq miss cycles
system.l2.ReadExReq_miss_latency::total  103373062500                       # number of ReadExReq miss cycles
system.l2.ReadExReq_accesses::.cpu.data             1                       # number of ReadExReq accesses(hits+misses)
system.l2.ReadExReq_accesses::.switch_cpus.data      1297887                       # number of ReadExReq accesses(hits+misses)
system.l2.ReadExReq_accesses::total           1297888                       # number of ReadExReq accesses(hits+misses)
system.l2.ReadExReq_miss_rate::.cpu.data            1                       # miss rate for ReadExReq accesses
system.l2.ReadExReq_miss_rate::.switch_cpus.data     0.999780                       # miss rate for ReadExReq accesses
system.l2.ReadExReq_miss_rate::total         0.999780                       # miss rate for ReadExReq accesses
system.l2.ReadExReq_avg_miss_latency::.switch_cpus.data 79664.691099                       # average ReadExReq miss latency
system.l2.ReadExReq_avg_miss_latency::total 79664.629706                       # average ReadExReq miss latency
system.l2.ReadExReq_mshr_misses::.switch_cpus.data      1297602                       # number of ReadExReq MSHR misses
system.l2.ReadExReq_mshr_misses::total        1297602                       # number of ReadExReq MSHR misses
system.l2.ReadExReq_mshr_miss_latency::.switch_cpus.data  90397042500                       # number of ReadExReq MSHR miss cycles
system.l2.ReadExReq_mshr_miss_latency::total  90397042500                       # number of ReadExReq MSHR miss cycles
system.l2.ReadExReq_mshr_miss_rate::.switch_cpus.data     0.999780                       # mshr miss rate for ReadExReq accesses
system.l2.ReadExReq_mshr_miss_rate::total     0.999780                       # mshr miss rate for ReadExReq accesses
system.l2.ReadExReq_avg_mshr_miss_latency::.switch_cpus.data 69664.691099                       # average ReadExReq mshr miss latency
system.l2.ReadExReq_avg_mshr_miss_latency::total 69664.691099                       # average ReadExReq mshr miss latency
system.l2.ReadCleanReq_hits::.switch_cpus.inst         1084                       # number of ReadCleanReq hits
system.l2.ReadCleanReq_hits::total               1084                       # number of ReadCleanReq hits
system.l2.ReadCleanReq_misses::.cpu.inst            2                       # number of ReadCleanReq misses
system.l2.ReadCleanReq_misses::.switch_cpus.inst         1210                       # number of ReadCleanReq misses
system.l2.ReadCleanReq_misses::total             1212                       # number of ReadCleanReq misses
[...]
system.cpu.interrupts.clk_domain.clock           8000                       # Clock period in ticks
system.cpu.itb_walker_cache.blocked_cycles::no_mshrs            0                       # number of cycles access was blocked
system.cpu.itb_walker_cache.blocked_cycles::no_targets            0                       # number of cycles access was blocked
system.cpu.itb_walker_cache.blocked::no_mshrs            0                       # number of cycles access was blocked
system.cpu.itb_walker_cache.blocked::no_targets            0                       # number of cycles access was blocked
system.cpu.itb_walker_cache.avg_blocked_cycles::no_mshrs          nan                       # average number of cycles each access was blocked
system.cpu.itb_walker_cache.avg_blocked_cycles::no_targets          nan                       # average number of cycles each access was blocked
system.cpu.itb_walker_cache.replacements            0                       # number of replacements
system.cpu.itb_walker_cache.power_state.pwrStateResidencyTicks::UNDEFINED 129175782500                       # Cumulative time (in ticks) in various power states
system.cpu.itb_walker_cache.tags.tagsinuse            0                       # Cycle average of tags in use
system.cpu.itb_walker_cache.tags.total_refs            0                       # Total number of references to valid blocks.
system.cpu.itb_walker_cache.tags.sampled_refs            0                       # Sample count of references to valid blocks.
system.cpu.itb_walker_cache.tags.avg_refs          nan                       # Average number of references to valid blocks.
system.cpu.itb_walker_cache.tags.warmup_cycle            0                       # Cycle when the warmup percentage was hit.
system.cpu.itb_walker_cache.tags.tag_accesses            0                       # Number of tag accesses
system.cpu.itb_walker_cache.tags.data_accesses            0                       # Number of data accesses
system.cpu.itb_walker_cache.tags.power_state.pwrStateResidencyTicks::UNDEFINED 129175782500                       # Cumulative time (in ticks) in various power states
system.cpu.itb.walker.power_state.pwrStateResidencyTicks::UNDEFINED 129175782500                       # Cumulative time (in ticks) in various power states
system.cpu.dtb_walker_cache.blocked_cycles::no_mshrs            0                       # number of cycles access was blocked
system.cpu.dtb_walker_cache.blocked_cycles::no_targets            0                       # number of cycles access was blocked
system.cpu.dtb_walker_cache.blocked::no_mshrs            0                       # number of cycles access was blocked
system.cpu.dtb_walker_cache.blocked::no_targets            0                       # number of cycles access was blocked
system.cpu.dtb_walker_cache.avg_blocked_cycles::no_mshrs          nan                       # average number of cycles each access was blocked
system.cpu.dtb_walker_cache.avg_blocked_cycles::no_targets          nan                       # average number of cycles each access was blocked
system.cpu.dtb_walker_cache.replacements            0                       # number of replacements
system.cpu.dtb_walker_cache.power_state.pwrStateResidencyTicks::UNDEFINED 129175782500                       # Cumulative time (in ticks) in various power states
system.cpu.dtb_walker_cache.tags.tagsinuse            0                       # Cycle average of tags in use
system.cpu.dtb_walker_cache.tags.total_refs            0                       # Total number of references to valid blocks.
system.cpu.dtb_walker_cache.tags.sampled_refs            0                       # Sample count of references to valid blocks.
system.cpu.dtb_walker_cache.tags.avg_refs          nan                       # Average number of references to valid blocks.
system.cpu.dtb_walker_cache.tags.warmup_cycle            0                       # Cycle when the warmup percentage was hit.
system.cpu.dtb_walker_cache.tags.tag_accesses            0                       # Number of tag accesses
system.cpu.dtb_walker_cache.tags.data_accesses            0                       # Number of data accesses
system.cpu.dtb_walker_cache.tags.power_state.pwrStateResidencyTicks::UNDEFINED 129175782500                       # Cumulative time (in ticks) in various power states
system.cpu.dcache.demand_hits::.cpu.data            6                       # number of demand (read+write) hits
system.cpu.dcache.demand_hits::.switch_cpus.data     10396853                       # number of demand (read+write) hits
system.cpu.dcache.demand_hits::total         10396859                       # number of demand (read+write) hits
system.cpu.dcache.overall_hits::.cpu.data            6                       # number of overall hits
system.cpu.dcache.overall_hits::.switch_cpus.data     10396853                       # number of overall hits
system.cpu.dcache.overall_hits::total        10396859                       # number of overall hits
system.cpu.dcache.demand_misses::.cpu.data            1                       # number of demand (read+write) misses
system.cpu.dcache.demand_misses::.switch_cpus.data      1457564                       # number of demand (read+write) misses
system.cpu.dcache.demand_misses::total        1457565                       # number of demand (read+write) misses
system.cpu.dcache.overall_misses::.cpu.data            1                       # number of overall misses
system.cpu.dcache.overall_misses::.switch_cpus.data      1457564                       # number of overall misses
system.cpu.dcache.overall_misses::total       1457565                       # number of overall misses
system.cpu.dcache.demand_miss_latency::.switch_cpus.data 119294300980                       # number of demand (read+write) miss cycles
system.cpu.dcache.demand_miss_latency::total 119294300980                       # number of demand (read+write) miss cycles
system.cpu.dcache.overall_miss_latency::.switch_cpus.data 119294300980                       # number of overall miss cycles
system.cpu.dcache.overall_miss_latency::total 119294300980                       # number of overall miss cycles
system.cpu.dcache.demand_accesses::.cpu.data            7                       # number of demand (read+write) accesses
system.cpu.dcache.demand_accesses::.switch_cpus.data     11854417                       # number of demand (read+write) accesses
system.cpu.dcache.demand_accesses::total     11854424                       # number of demand (read+write) accesses
system.cpu.dcache.overall_accesses::.cpu.data            7                       # number of overall (read+write) accesses
system.cpu.dcache.overall_accesses::.switch_cpus.data     11854417                       # number of overall (read+write) accesses
system.cpu.dcache.overall_accesses::total     11854424                       # number of overall (read+write) accesses
system.cpu.dcache.demand_miss_rate::.cpu.data     0.142857                       # miss rate for demand accesses
system.cpu.dcache.demand_miss_rate::.switch_cpus.data     0.122955                       # miss rate for demand accesses
system.cpu.dcache.demand_miss_rate::total     0.122955                       # miss rate for demand accesses
system.cpu.dcache.overall_miss_rate::.cpu.data     0.142857                       # miss rate for overall accesses
system.cpu.dcache.overall_miss_rate::.switch_cpus.data     0.122955                       # miss rate for overall accesses
system.cpu.dcache.overall_miss_rate::total     0.122955                       # miss rate for overall accesses
system.cpu.dcache.demand_avg_miss_latency::.switch_cpus.data 81844.983123                       # average overall miss latency
system.cpu.dcache.demand_avg_miss_latency::total 81844.926971                       # average overall miss latency
system.cpu.dcache.overall_avg_miss_latency::.switch_cpus.data 81844.983123                       # average overall miss latency
system.cpu.dcache.overall_avg_miss_latency::total 81844.926971                       # average overall miss latency
system.cpu.dcache.blocked_cycles::no_mshrs        24679                       # number of cycles access was blocked
system.cpu.dcache.blocked_cycles::no_targets          790                       # number of cycles access was blocked
system.cpu.dcache.blocked::no_mshrs               695                       # number of cycles access was blocked
system.cpu.dcache.blocked::no_targets               5                       # number of cycles access was blocked
system.cpu.dcache.avg_blocked_cycles::no_mshrs    35.509353                       # average number of cycles each access was blocked
system.cpu.dcache.avg_blocked_cycles::no_targets          158                       # average number of cycles each access was blocked
system.cpu.dcache.writebacks::.writebacks      1442116                       # number of writebacks
system.cpu.dcache.writebacks::total           1442116                       # number of writebacks
system.cpu.dcache.demand_mshr_hits::.switch_cpus.data        11699                       # number of demand (read+write) MSHR hits
system.cpu.dcache.demand_mshr_hits::total        11699                       # number of demand (read+write) MSHR hits
system.cpu.dcache.overall_mshr_hits::.switch_cpus.data        11699                       # number of overall MSHR hits
system.cpu.dcache.overall_mshr_hits::total        11699                       # number of overall MSHR hits
system.cpu.dcache.demand_mshr_misses::.switch_cpus.data      1445865                       # number of demand (read+write) MSHR misses
system.cpu.dcache.demand_mshr_misses::total      1445865                       # number of demand (read+write) MSHR misses
system.cpu.dcache.overall_mshr_misses::.switch_cpus.data      1445865                       # number of overall MSHR misses
system.cpu.dcache.overall_mshr_misses::total      1445865                       # number of overall MSHR misses
system.cpu.dcache.demand_mshr_miss_latency::.switch_cpus.data 117207895980                       # number of demand (read+write) MSHR miss cycles
system.cpu.dcache.demand_mshr_miss_latency::total 117207895980                       # number of demand (read+write) MSHR miss cycles
system.cpu.dcache.overall_mshr_miss_latency::.switch_cpus.data 117207895980                       # number of overall MSHR miss cycles
system.cpu.dcache.overall_mshr_miss_latency::total 117207895980                       # number of overall MSHR miss cycles
system.cpu.dcache.demand_mshr_miss_rate::.switch_cpus.data     0.121968                       # mshr miss rate for demand accesses
system.cpu.dcache.demand_mshr_miss_rate::total     0.121968                       # mshr miss rate for demand accesses
system.cpu.dcache.overall_mshr_miss_rate::.switch_cpus.data     0.121968                       # mshr miss rate for overall accesses
system.cpu.dcache.overall_mshr_miss_rate::total     0.121968                       # mshr miss rate for overall accesses
system.cpu.dcache.demand_avg_mshr_miss_latency::.switch_cpus.data 81064.204459                       # average overall mshr miss latency
system.cpu.dcache.demand_avg_mshr_miss_latency::total 81064.204459                       # average overall mshr miss latency
system.cpu.dcache.overall_avg_mshr_miss_latency::.switch_cpus.data 81064.204459                       # average overall mshr miss latency
system.cpu.dcache.overall_avg_mshr_miss_latency::total 81064.204459                       # average overall mshr miss latency
system.cpu.dcache.replacements                1445802                       # number of replacements
system.cpu.dcache.ReadReq_hits::.switch_cpus.data       203356                       # number of ReadReq hits
system.cpu.dcache.ReadReq_hits::total          203356                       # number of ReadReq hits
system.cpu.dcache.ReadReq_misses::.switch_cpus.data        16807                       # number of ReadReq misses
system.cpu.dcache.ReadReq_misses::total         16807                       # number of ReadReq misses
system.cpu.dcache.ReadReq_miss_latency::.switch_cpus.data    912731500                       # number of ReadReq miss cycles
system.cpu.dcache.ReadReq_miss_latency::total    912731500                       # number of ReadReq miss cycles
system.cpu.dcache.ReadReq_accesses::.switch_cpus.data       220163                       # number of ReadReq accesses(hits+misses)
system.cpu.dcache.ReadReq_accesses::total       220163                       # number of ReadReq accesses(hits+misses)
system.cpu.dcache.ReadReq_miss_rate::.switch_cpus.data     0.076339                       # miss rate for ReadReq accesses
system.cpu.dcache.ReadReq_miss_rate::total     0.076339                       # miss rate for ReadReq accesses
system.cpu.dcache.ReadReq_avg_miss_latency::.switch_cpus.data 54306.628191                       # average ReadReq miss latency
system.cpu.dcache.ReadReq_avg_miss_latency::total 54306.628191                       # average ReadReq miss latency
system.cpu.dcache.ReadReq_mshr_hits::.switch_cpus.data        11684                       # number of ReadReq MSHR hits
system.cpu.dcache.ReadReq_mshr_hits::total        11684                       # number of ReadReq MSHR hits
system.cpu.dcache.ReadReq_mshr_misses::.switch_cpus.data         5123                       # number of ReadReq MSHR misses
system.cpu.dcache.ReadReq_mshr_misses::total         5123                       # number of ReadReq MSHR misses
system.cpu.dcache.ReadReq_mshr_miss_latency::.switch_cpus.data    267489500                       # number of ReadReq MSHR miss cycles
system.cpu.dcache.ReadReq_mshr_miss_latency::total    267489500                       # number of ReadReq MSHR miss cycles
system.cpu.dcache.ReadReq_mshr_miss_rate::.switch_cpus.data     0.023269                       # mshr miss rate for ReadReq accesses
system.cpu.dcache.ReadReq_mshr_miss_rate::total     0.023269                       # mshr miss rate for ReadReq accesses
system.cpu.dcache.ReadReq_avg_mshr_miss_latency::.switch_cpus.data 52213.449151                       # average ReadReq mshr miss latency
system.cpu.dcache.ReadReq_avg_mshr_miss_latency::total 52213.449151                       # average ReadReq mshr miss latency
system.cpu.dcache.WriteReq_hits::.cpu.data            6                       # number of WriteReq hits
system.cpu.dcache.WriteReq_hits::.switch_cpus.data     10193497                       # number of WriteReq hits
system.cpu.dcache.WriteReq_hits::total       10193503                       # number of WriteReq hits
system.cpu.dcache.WriteReq_misses::.cpu.data            1                       # number of WriteReq misses
system.cpu.dcache.WriteReq_misses::.switch_cpus.data      1440757                       # number of WriteReq misses
system.cpu.dcache.WriteReq_misses::total      1440758                       # number of WriteReq misses
system.cpu.dcache.WriteReq_miss_latency::.switch_cpus.data 118381569480                       # number of WriteReq miss cycles
system.cpu.dcache.WriteReq_miss_latency::total 118381569480                       # number of WriteReq miss cycles
system.cpu.dcache.WriteReq_accesses::.cpu.data            7                       # number of WriteReq accesses(hits+misses)
system.cpu.dcache.WriteReq_accesses::.switch_cpus.data     11634254                       # number of WriteReq accesses(hits+misses)
system.cpu.dcache.WriteReq_accesses::total     11634261                       # number of WriteReq accesses(hits+misses)
system.cpu.dcache.WriteReq_miss_rate::.cpu.data     0.142857                       # miss rate for WriteReq accesses
system.cpu.dcache.WriteReq_miss_rate::.switch_cpus.data     0.123838                       # miss rate for WriteReq accesses
system.cpu.dcache.WriteReq_miss_rate::total     0.123838                       # miss rate for WriteReq accesses
system.cpu.dcache.WriteReq_avg_miss_latency::.switch_cpus.data 82166.228920                       # average WriteReq miss latency
system.cpu.dcache.WriteReq_avg_miss_latency::total 82166.171890                       # average WriteReq miss latency
system.cpu.dcache.WriteReq_mshr_hits::.switch_cpus.data           15                       # number of WriteReq MSHR hits
system.cpu.dcache.WriteReq_mshr_hits::total           15                       # number of WriteReq MSHR hits
system.cpu.dcache.WriteReq_mshr_misses::.switch_cpus.data      1440742                       # number of WriteReq MSHR misses
system.cpu.dcache.WriteReq_mshr_misses::total      1440742                       # number of WriteReq MSHR misses
system.cpu.dcache.WriteReq_mshr_miss_latency::.switch_cpus.data 116940406480                       # number of WriteReq MSHR miss cycles
system.cpu.dcache.WriteReq_mshr_miss_latency::total 116940406480                       # number of WriteReq MSHR miss cycles
system.cpu.dcache.WriteReq_mshr_miss_rate::.switch_cpus.data     0.123836                       # mshr miss rate for WriteReq accesses
system.cpu.dcache.WriteReq_mshr_miss_rate::total     0.123836                       # mshr miss rate for WriteReq accesses
system.cpu.dcache.WriteReq_avg_mshr_miss_latency::.switch_cpus.data 81166.792167                       # average WriteReq mshr miss latency
system.cpu.dcache.WriteReq_avg_mshr_miss_latency::total 81166.792167                       # average WriteReq mshr miss latency
system.cpu.dcache.power_state.pwrStateResidencyTicks::UNDEFINED 129175782500                       # Cumulative time (in ticks) in various power states
system.cpu.dcache.tags.tagsinuse            63.998668                       # Cycle average of tags in use
system.cpu.dcache.tags.total_refs            11842725                       # Total number of references to valid blocks.
system.cpu.dcache.tags.sampled_refs           1445866                       # Sample count of references to valid blocks.
system.cpu.dcache.tags.avg_refs              8.190749                       # Average number of references to valid blocks.
system.cpu.dcache.tags.warmup_cycle              1500                       # Cycle when the warmup percentage was hit.
system.cpu.dcache.tags.occ_blocks::.cpu.data     0.000060                       # Average occupied blocks per requestor
system.cpu.dcache.tags.occ_blocks::.switch_cpus.data    63.998609                       # Average occupied blocks per requestor
system.cpu.dcache.tags.occ_percent::.cpu.data     0.000001                       # Average percentage of cache occupancy
system.cpu.dcache.tags.occ_percent::.switch_cpus.data     0.999978                       # Average percentage of cache occupancy
system.cpu.dcache.tags.occ_percent::total     0.999979                       # Average percentage of cache occupancy
system.cpu.dcache.tags.occ_task_id_blocks::1024           64                       # Occupied blocks per task id
system.cpu.dcache.tags.age_task_id_blocks_1024::0           64                       # Occupied blocks per task id
system.cpu.dcache.tags.occ_task_id_percent::1024            1                       # Percentage of cache occupancy per task id
system.cpu.dcache.tags.tag_accesses          25154714                       # Number of tag accesses
system.cpu.dcache.tags.data_accesses         25154714                       # Number of data accesses
system.cpu.dcache.tags.power_state.pwrStateResidencyTicks::UNDEFINED 129175782500                       # Cumulative time (in ticks) in various power states
system.cpu.power_state.numTransitions               1                       # Number of power state transitions
system.cpu.power_state.pwrStateResidencyTicks::ON        10500                       # Cumulative time (in ticks) in various power states
system.cpu.power_state.pwrStateResidencyTicks::OFF 129175772000                       # Cumulative time (in ticks) in various power states

---------- End Simulation Statistics   ----------
