
---------- Begin Simulation Statistics ----------
final_tick                               115513871500                       # Number of ticks from beginning of simulation (restored from checkpoints and never reset)
host_inst_rate                                  27880                       # Simulator instruction rate (inst/s)
host_mem_usage                                1967700                       # Number of bytes of host memory used
host_op_rate                                    54168                       # Simulator op (including micro ops) rate (op/s)
host_seconds                                   358.69                       # Real time elapsed on the host
host_tick_rate                              322047194                       # Simulator tick rate (ticks/s)
sim_freq                                 1000000000000                       # Frequency of simulated ticks
sim_insts                                    10000010                       # Number of instructions simulated
sim_ops                                      19429293                       # Number of ops (including micro ops) simulated
sim_seconds                                  0.115514                       # Number of seconds simulated
sim_ticks                                115513871500                       # Number of ticks simulated
system.cpu.Branches                                 1                       # Number of branches fetched
system.cpu.committedInsts                          10                       # Number of instructions committed
system.cpu.committedOps                            21                       # Number of ops (including micro ops) committed
system.cpu.dtb.rdAccesses                           0                       # TLB accesses on read requests
system.cpu.dtb.rdMisses                             0                       # TLB misses on read requests
system.cpu.dtb.wrAccesses                           7                       # TLB accesses on write requests
system.cpu.dtb.wrMisses                             1                       # TLB misses on write requests
system.cpu.idle_fraction                            0                       # Percentage of idle cycles
system.cpu.itb.rdAccesses                           0                       # TLB accesses on read requests
system.cpu.itb.rdMisses                             0                       # TLB misses on read requests
system.cpu.itb.wrAccesses                          10                       # TLB accesses on write requests
system.cpu.itb.wrMisses                             0                       # TLB misses on write requests
system.cpu.not_idle_fraction                        1                       # Percentage of non-idle cycles
system.cpu.numCycles                               21                       # number of cpu cycles simulated
system.cpu.numWorkItemsCompleted                    0                       # number of work items this cpu completed
system.cpu.numWorkItemsStarted                      0                       # number of work items this cpu started
system.cpu.num_busy_cycles                         21                       # Number of busy cycles
system.cpu.num_cc_register_writes                   2                       # number of times the CC registers were written
system.cpu.num_conditional_control_insts            0                       # number of instructions that are conditional controls
system.cpu.num_fp_alu_accesses                      0                       # Number of float alu accesses
system.cpu.num_fp_insts                             0                       # number of float instructions
system.cpu.num_fp_register_reads                    0                       # number of times the floating registers were read
system.cpu.num_fp_register_writes                   0                       # number of times the floating registers were written
system.cpu.num_func_calls                           1                       # number of times a function call or return occured
system.cpu.num_idle_cycles                          0                       # Number of idle cycles
system.cpu.num_int_alu_accesses                    21                       # Number of integer alu accesses
system.cpu.num_int_insts                           21                       # number of integer instructions
system.cpu.num_int_register_reads                  47                       # number of times the integer registers were read
system.cpu.num_int_register_writes                 13                       # number of times the integer registers were written
system.cpu.num_load_insts                           0                       # Number of load instructions
system.cpu.num_mem_refs                             7                       # number of memory refs
system.cpu.num_store_insts                          7                       # Number of store instructions
system.cpu.num_vec_alu_accesses                     0                       # Number of vector alu accesses
system.cpu.num_vec_insts                            0                       # number of vector instructions
system.cpu.num_vec_register_reads                   0                       # number of times the vector registers were read
system.cpu.num_vec_register_writes                  0                       # number of times the vector registers were written
system.cpu.op_class::No_OpClass                     0      0.00%      0.00% # Class of executed instruction
system.cpu.op_class::IntAlu                        14     66.67%     66.67% # Class of executed instruction
system.cpu.op_class::IntMult                        0      0.00%     66.67% # Class of executed instruction
system.cpu.op_class::IntDiv                         0      0.00%     66.67% # Class of executed instruction
system.cpu.op_class::FloatAdd                       0      0.00%     66.67% # Class of executed instruction
system.cpu.op_class::FloatCmp                       0      0.00%     66.67% # Class of executed instruction
system.cpu.op_class::FloatCvt                       0      0.00%     66.67% # Class of executed instruction
system.cpu.op_class::FloatMult                      0      0.00%     66.67% # Class of executed instruction
system.cpu.op_class::FloatMultAcc                   0      0.00%     66.67% # Class of executed instruction
system.cpu.op_class::FloatDiv                       0      0.00%     66.67% # Class of executed instruction
system.cpu.op_class::FloatMisc                      0      0.00%     66.67% # Class of executed instruction
system.cpu.op_class::FloatSqrt                      0      0.00%     66.67% # Class of executed instruction
system.cpu.op_class::SimdAdd                        0      0.00%     66.67% # Class of executed instruction
system.cpu.op_class::SimdAddAcc                     0      0.00%     66.67% # Class of executed instruction
system.cpu.op_class::SimdAlu                        0      0.00%     66.67% # Class of executed instruction
system.cpu.op_class::SimdCmp                        0      0.00%     66.67% # Class of executed instruction
system.cpu.op_class::SimdCvt                        0      0.00%     66.67% # Class of executed instruction
system.cpu.op_class::SimdMisc                       0      0.00%     66.67% # Class of executed instruction
system.cpu.op_class::SimdMult                       0      0.00%     66.67% # Class of executed instruction
system.cpu.op_class::SimdMultAcc                    0      0.00%     66.67% # Class of executed instruction
system.cpu.op_class::SimdShift                      0      0.00%     66.67% # Class of executed instruction
system.cpu.op_class::SimdShiftAcc                   0      0.00%     66.67% # Class of executed instruction
system.cpu.op_class::SimdDiv                        0      0.00%     66.67% # Class of executed instruction
system.cpu.op_class::SimdSqrt                       0      0.00%     66.67% # Class of executed instruction
system.cpu.op_class::SimdFloatAdd                   0      0.00%     66.67% # Class of executed instruction
system.cpu.op_class::SimdFloatAlu                   0      0.00%     66.67% # Class of executed instruction
system.cpu.op_class::SimdFloatCmp                   0      0.00%     66.67% # Class of executed instruction
system.cpu.op_class::SimdFloatCvt                   0      0.00%     66.67% # Class of executed instruction
system.cpu.op_class::SimdFloatDiv                   0      0.00%     66.67% # Class of executed instruction
system.cpu.op_class::SimdFloatMisc                  0      0.00%     66.67% # Class of executed instruction
system.cpu.op_class::SimdFloatMult                  0      0.00%     66.67% # Class of executed instruction
system.cpu.op_class::SimdFloatMultAcc               0      0.00%     66.67% # Class of executed instruction
system.cpu.op_class::SimdFloatSqrt                  0      0.00%     66.67% # Class of executed instruction
system.cpu.op_class::SimdReduceAdd                  0      0.00%     66.67% # Class of executed instruction
system.cpu.op_class::SimdReduceAlu                  0      0.00%     66.67% # Class of executed instruction
system.cpu.op_class::SimdReduceCmp                  0      0.00%     66.67% # Class of executed instruction
system.cpu.op_class::SimdFloatReduceAdd             0      0.00%     66.67% # Class of executed instruction
system.cpu.op_class::SimdFloatReduceCmp             0      0.00%     66.67% # Class of executed instruction
system.cpu.op_class::SimdAes                        0      0.00%     66.67% # Class of executed instruction
system.cpu.op_class::SimdAesMix                     0      0.00%     66.67% # Class of executed instruction
system.cpu.op_class::SimdSha1Hash                   0      0.00%     66.67% # Class of executed instruction
system.cpu.op_class::SimdSha1Hash2                  0      0.00%     66.67% # Class of executed instruction
system.cpu.op_class::SimdSha256Hash                 0      0.00%     66.67% # Class of executed instruction
system.cpu.op_class::SimdSha256Hash2                0      0.00%     66.67% # Class of executed instruction
system.cpu.op_class::SimdShaSigma2                  0      0.00%     66.67% # Class of executed instruction
system.cpu.op_class::SimdShaSigma3                  0      0.00%     66.67% # Class of executed instruction
system.cpu.op_class::SimdPredAlu                    0      0.00%     66.67% # Class of executed instruction
system.cpu.op_class::MemRead                        0      0.00%     66.67% # Class of executed instruction
system.cpu.op_class::MemWrite                       7     33.33%    100.00% # Class of executed instruction
system.cpu.op_class::FloatMemRead                   0      0.00%    100.00% # Class of executed instruction
system.cpu.op_class::FloatMemWrite                  0      0.00%    100.00% # Class of executed instruction
system.cpu.op_class::IprAccess                      0      0.00%    100.00% # Class of executed instruction
system.cpu.op_class::InstPrefetch                   0      0.00%    100.00% # Class of executed instruction
system.cpu.op_class::total                         21                       # Class of executed instruction
system.cpu.workload.numSyscalls                    30                       # Number of system calls
system.membus.snoop_filter.hit_multi_requests            0                       # Number of requests hitting in the snoop filter with multiple (>1) holders of the requested data.
system.membus.snoop_filter.hit_multi_snoops            0                       # Number of snoops hitting in the snoop filter with multiple (>1) holders of the requested data.
system.membus.snoop_filter.hit_single_requests      1301316                       # Number of requests hitting in the snoop filter with a single holder of the requested data.
system.membus.snoop_filter.hit_single_snoops            0                       # Number of snoops hitting in the snoop filter with a single holder of the requested data.
system.membus.snoop_filter.tot_requests       2602952                       # Total number of requests made to the snoop filter.
system.membus.snoop_filter.tot_snoops               0                       # Total number of snoops made to the snoop filter.
system.switch_cpus.branchPred.BTBCorrect            0                       # Number of correct BTB predictions (this stat may not work properly.
system.switch_cpus.branchPred.BTBHitPct           nan                       # BTB Hit Percentage
system.switch_cpus.branchPred.BTBHits               0                       # Number of BTB hits
system.switch_cpus.branchPred.BTBLookups            0                       # Number of BTB lookups
system.switch_cpus.branchPred.RASInCorrect            5                       # Number of incorrect RAS predictions.
system.switch_cpus.branchPred.condIncorrect         7776                       # Number of conditional branches incorrect
system.switch_cpus.branchPred.condPredicted      1555639                       # Number of conditional branches predicted
system.switch_cpus.branchPred.indirectHits      1503086                       # Number of indirect target hits.
system.switch_cpus.branchPred.indirectLookups      1519052                       # Number of indirect predictor lookups.
system.switch_cpus.branchPred.indirectMisses        15966                       # Number of indirect misses.
system.switch_cpus.branchPred.lookups         1565372                       # Number of BP lookups
system.switch_cpus.branchPred.usedRAS            4695                       # Number of times the RAS was used to get a target.
system.switch_cpus.branchPredindirectMispredicted         3269                       # Number of mispredicted indirect branches.
system.switch_cpus.cc_regfile_reads           7685203                       # number of cc regfile reads
system.switch_cpus.cc_regfile_writes          6353910                       # number of cc regfile writes
system.switch_cpus.commit.amos                      0                       # Number of atomic instructions committed
system.switch_cpus.commit.branchMispredicts         8231                       # The number of times a branch was mispredicted
system.switch_cpus.commit.branches            1364234                       # Number of branches committed
system.switch_cpus.commit.bw_lim_events        104401                       # number cycles where commit BW limit reached
system.switch_cpus.commit.commitNonSpecStalls           66                       # The number of times commit has been forced to stall to communicate backwards
system.switch_cpus.commit.commitSquashedInsts      1445747                       # The number of squashed insts skipped by commit
system.switch_cpus.commit.committedInsts     10000000                       # Number of instructions committed
system.switch_cpus.commit.committedOps       19429272                       # Number of ops (including micro ops) committed
system.switch_cpus.commit.committed_per_cycle::samples    230751647                       # Number of insts commited each cycle
system.switch_cpus.commit.committed_per_cycle::mean     0.084200                       # Number of insts commited each cycle
system.switch_cpus.commit.committed_per_cycle::stdev     0.412828                       # Number of insts commited each cycle
system.switch_cpus.commit.committed_per_cycle::underflows            0      0.00%      0.00% # Number of insts commited each cycle
system.switch_cpus.commit.committed_per_cycle::0    217618859     94.31%     94.31% # Number of insts commited each cycle
system.switch_cpus.commit.committed_per_cycle::1      9247486      4.01%     98.32% # Number of insts commited each cycle
system.switch_cpus.commit.committed_per_cycle::2      2301329      1.00%     99.31% # Number of insts commited each cycle
system.switch_cpus.commit.committed_per_cycle::3      1328383      0.58%     99.89% # Number of insts commited each cycle
system.switch_cpus.commit.committed_per_cycle::4        29627      0.01%     99.90% # Number of insts commited each cycle
system.switch_cpus.commit.committed_per_cycle::5        90265      0.04%     99.94% # Number of insts commited each cycle
system.switch_cpus.commit.committed_per_cycle::6        30141      0.01%     99.95% # Number of insts commited each cycle
system.switch_cpus.commit.committed_per_cycle::7         1156      0.00%     99.95% # Number of insts commited each cycle
system.switch_cpus.commit.committed_per_cycle::8       104401      0.05%    100.00% # Number of insts commited each cycle
system.switch_cpus.commit.committed_per_cycle::overflows            0      0.00%    100.00% # Number of insts commited each cycle
system.switch_cpus.commit.committed_per_cycle::min_value            0                       # Number of insts commited each cycle
system.switch_cpus.commit.committed_per_cycle::max_value            8                       # Number of insts commited each cycle
system.switch_cpus.commit.committed_per_cycle::total    230751647                       # Number of insts commited each cycle
system.switch_cpus.commit.fp_insts           10355201                       # Number of committed floating point instructions.
system.switch_cpus.commit.function_calls         2749                       # Number of function calls committed.
system.switch_cpus.commit.int_insts          19425506                       # Number of committed integer instructions.
system.switch_cpus.commit.loads                200463                       # Number of loads committed
system.switch_cpus.commit.membars                   0                       # Number of memory barriers committed
system.switch_cpus.commit.op_class_0::No_OpClass         3626      0.02%      0.02% # Class of committed instruction
system.switch_cpus.commit.op_class_0::IntAlu      8731515     44.94%     44.96% # Class of committed instruction
system.switch_cpus.commit.op_class_0::IntMult          643      0.00%     44.96% # Class of committed instruction
system.switch_cpus.commit.op_class_0::IntDiv         1388      0.01%     44.97% # Class of committed instruction
system.switch_cpus.commit.op_class_0::FloatAdd           37      0.00%     44.97% # Class of committed instruction
system.switch_cpus.commit.op_class_0::FloatCmp            0      0.00%     44.97% # Class of committed instruction
system.switch_cpus.commit.op_class_0::FloatCvt           64      0.00%     44.97% # Class of committed instruction
system.switch_cpus.commit.op_class_0::FloatMult            0      0.00%     44.97% # Class of committed instruction
system.switch_cpus.commit.op_class_0::FloatMultAcc            0      0.00%     44.97% # Class of committed instruction
system.switch_cpus.commit.op_class_0::FloatDiv            0      0.00%     44.97% # Class of committed instruction
system.switch_cpus.commit.op_class_0::FloatMisc            0      0.00%     44.97% # Class of committed instruction
system.switch_cpus.commit.op_class_0::FloatSqrt            0      0.00%     44.97% # Class of committed instruction
system.switch_cpus.commit.op_class_0::SimdAdd            0      0.00%     44.97% # Class of committed instruction
system.switch_cpus.commit.op_class_0::SimdAddAcc            0      0.00%     44.97% # Class of committed instruction
system.switch_cpus.commit.op_class_0::SimdAlu            6      0.00%     44.97% # Class of committed instruction
system.switch_cpus.commit.op_class_0::SimdCmp            0      0.00%     44.97% # Class of committed instruction
system.switch_cpus.commit.op_class_0::SimdCvt           36      0.00%     44.97% # Class of committed instruction
system.switch_cpus.commit.op_class_0::SimdMisc           71      0.00%     44.97% # Class of committed instruction
system.switch_cpus.commit.op_class_0::SimdMult            0      0.00%     44.97% # Class of committed instruction
system.switch_cpus.commit.op_class_0::SimdMultAcc            0      0.00%     44.97% # Class of committed instruction
system.switch_cpus.commit.op_class_0::SimdShift            0      0.00%     44.97% # Class of committed instruction
system.switch_cpus.commit.op_class_0::SimdShiftAcc            0      0.00%     44.97% # Class of committed instruction
system.switch_cpus.commit.op_class_0::SimdDiv            0      0.00%     44.97% # Class of committed instruction
system.switch_cpus.commit.op_class_0::SimdSqrt            0      0.00%     44.97% # Class of committed instruction
system.switch_cpus.commit.op_class_0::SimdFloatAdd            0      0.00%     44.97% # Class of committed instruction
system.switch_cpus.commit.op_class_0::SimdFloatAlu            0      0.00%     44.97% # Class of committed instruction
system.switch_cpus.commit.op_class_0::SimdFloatCmp            0      0.00%     44.97% # Class of committed instruction
system.switch_cpus.commit.op_class_0::SimdFloatCvt            0      0.00%     44.97% # Class of committed instruction
system.switch_cpus.commit.op_class_0::SimdFloatDiv            0      0.00%     44.97% # Class of committed instruction
system.switch_cpus.commit.op_class_0::SimdFloatMisc            0      0.00%     44.97% # Class of committed instruction
system.switch_cpus.commit.op_class_0::SimdFloatMult            0      0.00%     44.97% # Class of committed instruction
system.switch_cpus.commit.op_class_0::SimdFloatMultAcc            0      0.00%     44.97% # Class of committed instruction
system.switch_cpus.commit.op_class_0::SimdFloatSqrt            0      0.00%     44.97% # Class of committed instruction
system.switch_cpus.commit.op_class_0::SimdReduceAdd            0      0.00%     44.97% # Class of committed instruction
system.switch_cpus.commit.op_class_0::SimdReduceAlu            0      0.00%     44.97% # Class of committed instruction
system.switch_cpus.commit.op_class_0::SimdReduceCmp            0      0.00%     44.97% # Class of committed instruction
system.switch_cpus.commit.op_class_0::SimdFloatReduceAdd            0      0.00%     44.97% # Class of committed instruction
system.switch_cpus.commit.op_class_0::SimdFloatReduceCmp            0      0.00%     44.97% # Class of committed instruction
system.switch_cpus.commit.op_class_0::SimdAes            0      0.00%     44.97% # Class of committed instruction
system.switch_cpus.commit.op_class_0::SimdAesMix            0      0.00%     44.97% # Class of committed instruction
system.switch_cpus.commit.op_class_0::SimdSha1Hash            0      0.00%     44.97% # Class of committed instruction
system.switch_cpus.commit.op_class_0::SimdSha1Hash2            0      0.00%     44.97% # Class of committed instruction
system.switch_cpus.commit.op_class_0::SimdSha256Hash            0      0.00%     44.97% # Class of committed instruction
system.switch_cpus.commit.op_class_0::SimdSha256Hash2            0      0.00%     44.97% # Class of committed instruction
system.switch_cpus.commit.op_class_0::SimdShaSigma2            0      0.00%     44.97% # Class of committed instruction
system.switch_cpus.commit.op_class_0::SimdShaSigma3            0      0.00%     44.97% # Class of committed instruction
system.switch_cpus.commit.op_class_0::SimdPredAlu            0      0.00%     44.97% # Class of committed instruction
system.switch_cpus.commit.op_class_0::MemRead       200317      1.03%     46.00% # Class of committed instruction
system.switch_cpus.commit.op_class_0::MemWrite       136605      0.70%     46.70% # Class of committed instruction
system.switch_cpus.commit.op_class_0::FloatMemRead          146      0.00%     46.71% # Class of committed instruction
system.switch_cpus.commit.op_class_0::FloatMemWrite     10354818     53.29%    100.00% # Class of committed instruction
system.switch_cpus.commit.op_class_0::IprAccess            0      0.00%    100.00% # Class of committed instruction
system.switch_cpus.commit.op_class_0::InstPrefetch            0      0.00%    100.00% # Class of committed instruction
system.switch_cpus.commit.op_class_0::total     19429272                       # Class of committed instruction
system.switch_cpus.commit.refs               10691886                       # Number of memory references committed
system.switch_cpus.commit.swp_count                 0                       # Number of s/w prefetches committed
system.switch_cpus.commit.vec_insts                 0                       # Number of committed Vector instructions.
system.switch_cpus.committedInsts            10000000                       # Number of Instructions Simulated
system.switch_cpus.committedOps              19429272                       # Number of Ops (including micro ops) Simulated
system.switch_cpus.cpi                      23.102772                       # CPI: Cycles Per Instruction
system.switch_cpus.cpi_total                23.102772                       # CPI: Total CPI of All Threads
system.switch_cpus.decode.BlockedCycles     227175369                       # Number of cycles decode is blocked
system.switch_cpus.decode.DecodedInsts       21088042                       # Number of instructions handled by decode
system.switch_cpus.decode.IdleCycles           996949                       # Number of cycles decode is idle
system.switch_cpus.decode.RunCycles            355802                       # Number of cycles decode is running
system.switch_cpus.decode.SquashCycles          28612                       # Number of cycles decode is squashing
system.switch_cpus.decode.UnblockCycles       2384700                       # Number of cycles decode is unblocking
system.switch_cpus.dtb.rdAccesses              230308                       # TLB accesses on read requests
system.switch_cpus.dtb.rdMisses                  1595                       # TLB misses on read requests
system.switch_cpus.dtb.wrAccesses            11165358                       # TLB accesses on write requests
system.switch_cpus.dtb.wrMisses                647429                       # TLB misses on write requests
system.switch_cpus.fetch.Branches             1565372                       # Number of branches that fetch encountered
system.switch_cpus.fetch.CacheLines           3002424                       # Number of cache lines fetched
system.switch_cpus.fetch.Cycles             227838081                       # Number of cycles fetch has run and was not squashing or blocked
system.switch_cpus.fetch.IcacheSquashes          2655                       # Number of outstanding Icache misses that were squashed
system.switch_cpus.fetch.IcacheWaitRetryStallCycles          146                       # Number of stall cycles due to full MSHR
system.switch_cpus.fetch.Insts               11301834                       # Number of instructions fetch has processed
system.switch_cpus.fetch.MiscStallCycles          484                       # Number of cycles fetch has spent waiting on interrupts, or bad addresses, or out of MSHRs
system.switch_cpus.fetch.PendingQuiesceStallCycles            7                       # Number of stall cycles due to pending quiesce instructions
system.switch_cpus.fetch.PendingTrapStallCycles         3166                       # Number of stall cycles due to pending traps
system.switch_cpus.fetch.SquashCycles           57224                       # Number of cycles fetch has spent squashing
system.switch_cpus.fetch.branchRate          0.006776                       # Number of branch fetches per cycle
system.switch_cpus.fetch.icacheStallCycles      3070938                       # Number of cycles fetch is stalled on an Icache miss
system.switch_cpus.fetch.predictedBranches      1507781                       # Number of branches that fetch has predicted taken
system.switch_cpus.fetch.rate                0.048920                       # Number of inst fetches per cycle
system.switch_cpus.fetch.rateDist::samples    230941434                       # Number of instructions fetched each cycle (Total)
system.switch_cpus.fetch.rateDist::mean      0.095187                       # Number of instructions fetched each cycle (Total)
system.switch_cpus.fetch.rateDist::stdev     0.728012                       # Number of instructions fetched each cycle (Total)
system.switch_cpus.fetch.rateDist::underflows            0      0.00%      0.00% # Number of instructions fetched each cycle (Total)
system.switch_cpus.fetch.rateDist::0        226102865     97.90%     97.90% # Number of instructions fetched each cycle (Total)
system.switch_cpus.fetch.rateDist::1            20541      0.01%     97.91% # Number of instructions fetched each cycle (Total)
system.switch_cpus.fetch.rateDist::2          1415413      0.61%     98.53% # Number of instructions fetched each cycle (Total)
system.switch_cpus.fetch.rateDist::3            20428      0.01%     98.54% # Number of instructions fetched each cycle (Total)
system.switch_cpus.fetch.rateDist::4          1738459      0.75%     99.29% # Number of instructions fetched each cycle (Total)
system.switch_cpus.fetch.rateDist::5            31997      0.01%     99.30% # Number of instructions fetched each cycle (Total)
system.switch_cpus.fetch.rateDist::6           462498      0.20%     99.50% # Number of instructions fetched each cycle (Total)
system.switch_cpus.fetch.rateDist::7            12685      0.01%     99.51% # Number of instructions fetched each cycle (Total)
system.switch_cpus.fetch.rateDist::8          1136548      0.49%    100.00% # Number of instructions fetched each cycle (Total)
system.switch_cpus.fetch.rateDist::overflows            0      0.00%    100.00% # Number of instructions fetched each cycle (Total)
system.switch_cpus.fetch.rateDist::min_value            0                       # Number of instructions fetched each cycle (Total)
system.switch_cpus.fetch.rateDist::max_value            8                       # Number of instructions fetched each cycle (Total)
system.switch_cpus.fetch.rateDist::total    230941434                       # Number of instructions fetched each cycle (Total)
system.switch_cpus.fp_regfile_reads          11022561                       # number of floating regfile reads
system.switch_cpus.fp_regfile_writes              354                       # number of floating regfile writes
system.switch_cpus.idleCycles                   86288                       # Total number of cycles that the CPU has spent unscheduled due to idling
system.switch_cpus.iew.branchMispredicts        10216                       # Number of branch mispredicts detected at execute
system.switch_cpus.iew.exec_branches          1460270                       # Number of branches executed
system.switch_cpus.iew.exec_nop                     0                       # number of nop insts executed
system.switch_cpus.iew.exec_rate             0.089964                       # Inst execution rate
system.switch_cpus.iew.exec_refs             11398433                       # number of memory reference insts executed
system.switch_cpus.iew.exec_stores           11165356                       # Number of stores executed
system.switch_cpus.iew.exec_swp                     0                       # number of swp insts executed
system.switch_cpus.iew.iewBlockCycles          236796                       # Number of cycles IEW is blocking
system.switch_cpus.iew.iewDispLoadInsts        244184                       # Number of dispatched load instructions
system.switch_cpus.iew.iewDispNonSpecInsts          103                       # Number of dispatched non-speculative instructions
system.switch_cpus.iew.iewDispSquashedInsts          741                       # Number of squashed instructions skipped by dispatch
system.switch_cpus.iew.iewDispStoreInsts     11170202                       # Number of dispatched store instructions
system.switch_cpus.iew.iewDispatchedInsts     20896306                       # Number of instructions dispatched to IQ
system.switch_cpus.iew.iewExecLoadInsts        233077                       # Number of load instructions executed
system.switch_cpus.iew.iewExecSquashedInsts        14469                       # Number of squashed instructions skipped in execute
system.switch_cpus.iew.iewExecutedInsts      20784240                       # Number of executed instructions
system.switch_cpus.iew.iewIQFullEvents           1058                       # Number of times the IQ has become full, causing a stall
system.switch_cpus.iew.iewIdleCycles                0                       # Number of cycles IEW is idle
system.switch_cpus.iew.iewLSQFullEvents     110133715                       # Number of times the LSQ has become full, causing a stall
system.switch_cpus.iew.iewSquashCycles          28612                       # Number of cycles IEW is squashing
system.switch_cpus.iew.iewUnblockCycles     110115168                       # Number of cycles IEW is unblocking
system.switch_cpus.iew.lsq.thread0.blockedLoads            0                       # Number of blocked loads due to partial load-store forwarding
system.switch_cpus.iew.lsq.thread0.cacheBlocked          636                       # Number of times an access to memory failed due to the cache being blocked
system.switch_cpus.iew.lsq.thread0.forwLoads         9188                       # Number of loads that had data forwarded from stores
system.switch_cpus.iew.lsq.thread0.ignoredResponses           71                       # Number of memory responses ignored because the instruction is squashed
system.switch_cpus.iew.lsq.thread0.invAddrLoads            0                       # Number of loads ignored due to an invalid address
system.switch_cpus.iew.lsq.thread0.invAddrSwpfs            0                       # Number of software prefetches ignored due to an invalid address
system.switch_cpus.iew.lsq.thread0.memOrderViolation           83                       # Number of memory ordering violations
system.switch_cpus.iew.lsq.thread0.rescheduledLoads            4                       # Number of loads that were rescheduled
system.switch_cpus.iew.lsq.thread0.squashedLoads        43721                       # Number of loads squashed
system.switch_cpus.iew.lsq.thread0.squashedStores       678777                       # Number of stores squashed
system.switch_cpus.iew.memOrderViolationEvents           83                       # Number of memory order violations
system.switch_cpus.iew.predictedNotTakenIncorrect         8199                       # Number of branches that were predicted not taken incorrectly
system.switch_cpus.iew.predictedTakenIncorrect         2017                       # Number of branches that were predicted taken incorrectly
system.switch_cpus.iew.wb_consumers          11905508                       # num instructions consuming a value
system.switch_cpus.iew.wb_count              20142915                       # cumulative count of insts written-back
system.switch_cpus.iew.wb_fanout             0.657281                       # average fanout of values written-back
system.switch_cpus.iew.wb_producers           7825263                       # num instructions producing a value
system.switch_cpus.iew.wb_rate               0.087188                       # insts written-back per cycle
system.switch_cpus.iew.wb_sent               20774654                       # cumulative count of insts sent to commit
system.switch_cpus.int_regfile_reads         32989196                       # number of integer regfile reads
system.switch_cpus.int_regfile_writes         8147465                       # number of integer regfile writes
system.switch_cpus.ipc                       0.043285                       # IPC: Instructions Per Cycle
system.switch_cpus.ipc_total                 0.043285                       # IPC: Total IPC of All Threads
system.switch_cpus.iq.FU_type_0::No_OpClass         6564      0.03%      0.03% # Type of FU issued
system.switch_cpus.iq.FU_type_0::IntAlu       9387162     45.13%     45.16% # Type of FU issued
system.switch_cpus.iq.FU_type_0::IntMult          681      0.00%     45.17% # Type of FU issued
system.switch_cpus.iq.FU_type_0::IntDiv          1432      0.01%     45.18% # Type of FU issued
system.switch_cpus.iq.FU_type_0::FloatAdd           37      0.00%     45.18% # Type of FU issued
system.switch_cpus.iq.FU_type_0::FloatCmp            0      0.00%     45.18% # Type of FU issued
system.switch_cpus.iq.FU_type_0::FloatCvt           64      0.00%     45.18% # Type of FU issued
system.switch_cpus.iq.FU_type_0::FloatMult            0      0.00%     45.18% # Type of FU issued
system.switch_cpus.iq.FU_type_0::FloatMultAcc            0      0.00%     45.18% # Type of FU issued
system.switch_cpus.iq.FU_type_0::FloatDiv            0      0.00%     45.18% # Type of FU issued
system.switch_cpus.iq.FU_type_0::FloatMisc            0      0.00%     45.18% # Type of FU issued
system.switch_cpus.iq.FU_type_0::FloatSqrt            0      0.00%     45.18% # Type of FU issued
system.switch_cpus.iq.FU_type_0::SimdAdd            0      0.00%     45.18% # Type of FU issued
system.switch_cpus.iq.FU_type_0::SimdAddAcc            0      0.00%     45.18% # Type of FU issued
system.switch_cpus.iq.FU_type_0::SimdAlu            6      0.00%     45.18% # Type of FU issued
system.switch_cpus.iq.FU_type_0::SimdCmp            0      0.00%     45.18% # Type of FU issued
system.switch_cpus.iq.FU_type_0::SimdCvt           41      0.00%     45.18% # Type of FU issued
system.switch_cpus.iq.FU_type_0::SimdMisc           75      0.00%     45.18% # Type of FU issued
system.switch_cpus.iq.FU_type_0::SimdMult            0      0.00%     45.18% # Type of FU issued
system.switch_cpus.iq.FU_type_0::SimdMultAcc            0      0.00%     45.18% # Type of FU issued
system.switch_cpus.iq.FU_type_0::SimdShift            0      0.00%     45.18% # Type of FU issued
system.switch_cpus.iq.FU_type_0::SimdShiftAcc            0      0.00%     45.18% # Type of FU issued
system.switch_cpus.iq.FU_type_0::SimdDiv            0      0.00%     45.18% # Type of FU issued
system.switch_cpus.iq.FU_type_0::SimdSqrt            0      0.00%     45.18% # Type of FU issued
system.switch_cpus.iq.FU_type_0::SimdFloatAdd            0      0.00%     45.18% # Type of FU issued
system.switch_cpus.iq.FU_type_0::SimdFloatAlu            0      0.00%     45.18% # Type of FU issued
system.switch_cpus.iq.FU_type_0::SimdFloatCmp            0      0.00%     45.18% # Type of FU issued
system.switch_cpus.iq.FU_type_0::SimdFloatCvt            0      0.00%     45.18% # Type of FU issued
system.switch_cpus.iq.FU_type_0::SimdFloatDiv            0      0.00%     45.18% # Type of FU issued
system.switch_cpus.iq.FU_type_0::SimdFloatMisc            0      0.00%     45.18% # Type of FU issued
system.switch_cpus.iq.FU_type_0::SimdFloatMult            0      0.00%     45.18% # Type of FU issued
system.switch_cpus.iq.FU_type_0::SimdFloatMultAcc            0      0.00%     45.18% # Type of FU issued
system.switch_cpus.iq.FU_type_0::SimdFloatSqrt            0      0.00%     45.18% # Type of FU issued
system.switch_cpus.iq.FU_type_0::SimdReduceAdd            0      0.00%     45.18% # Type of FU issued
system.switch_cpus.iq.FU_type_0::SimdReduceAlu            0      0.00%     45.18% # Type of FU issued
system.switch_cpus.iq.FU_type_0::SimdReduceCmp            0      0.00%     45.18% # Type of FU issued
system.switch_cpus.iq.FU_type_0::SimdFloatReduceAdd            0      0.00%     45.18% # Type of FU issued
system.switch_cpus.iq.FU_type_0::SimdFloatReduceCmp            0      0.00%     45.18% # Type of FU issued
system.switch_cpus.iq.FU_type_0::SimdAes            0      0.00%     45.18% # Type of FU issued
system.switch_cpus.iq.FU_type_0::SimdAesMix            0      0.00%     45.18% # Type of FU issued
system.switch_cpus.iq.FU_type_0::SimdSha1Hash            0      0.00%     45.18% # Type of FU issued
system.switch_cpus.iq.FU_type_0::SimdSha1Hash2            0      0.00%     45.18% # Type of FU issued
system.switch_cpus.iq.FU_type_0::SimdSha256Hash            0      0.00%     45.18% # Type of FU issued
system.switch_cpus.iq.FU_type_0::SimdSha256Hash2            0      0.00%     45.18% # Type of FU issued
system.switch_cpus.iq.FU_type_0::SimdShaSigma2            0      0.00%     45.18% # Type of FU issued
system.switch_cpus.iq.FU_type_0::SimdShaSigma3            0      0.00%     45.18% # Type of FU issued
system.switch_cpus.iq.FU_type_0::SimdPredAlu            0      0.00%     45.18% # Type of FU issued
system.switch_cpus.iq.FU_type_0::MemRead       235843      1.13%     46.31% # Type of FU issued
system.switch_cpus.iq.FU_type_0::MemWrite       144406      0.69%     47.00% # Type of FU issued
system.switch_cpus.iq.FU_type_0::FloatMemRead          190      0.00%     47.01% # Type of FU issued
system.switch_cpus.iq.FU_type_0::FloatMemWrite     11022209     52.99%    100.00% # Type of FU issued
system.switch_cpus.iq.FU_type_0::IprAccess            0      0.00%    100.00% # Type of FU issued
system.switch_cpus.iq.FU_type_0::InstPrefetch            0      0.00%    100.00% # Type of FU issued
system.switch_cpus.iq.FU_type_0::total       20798710                       # Type of FU issued
system.switch_cpus.iq.fp_alu_accesses        11063128                       # Number of floating point alu accesses
system.switch_cpus.iq.fp_inst_queue_reads     22085775                       # Number of floating instruction queue reads
system.switch_cpus.iq.fp_inst_queue_wakeup_accesses     10395709                       # Number of floating instruction queue wakeup accesses
system.switch_cpus.iq.fp_inst_queue_writes     11690051                       # Number of floating instruction queue writes
system.switch_cpus.iq.fu_busy_cnt               70420                       # FU busy when requested
system.switch_cpus.iq.fu_busy_rate           0.003386                       # FU busy rate (busy events/executed inst)
system.switch_cpus.iq.fu_full::No_OpClass            0      0.00%      0.00% # attempts to use FU when none available
system.switch_cpus.iq.fu_full::IntAlu            7593     10.78%     10.78% # attempts to use FU when none available
system.switch_cpus.iq.fu_full::IntMult              0      0.00%     10.78% # attempts to use FU when none available
system.switch_cpus.iq.fu_full::IntDiv               0      0.00%     10.78% # attempts to use FU when none available
system.switch_cpus.iq.fu_full::FloatAdd             0      0.00%     10.78% # attempts to use FU when none available
system.switch_cpus.iq.fu_full::FloatCmp             0      0.00%     10.78% # attempts to use FU when none available
system.switch_cpus.iq.fu_full::FloatCvt             0      0.00%     10.78% # attempts to use FU when none available
system.switch_cpus.iq.fu_full::FloatMult            0      0.00%     10.78% # attempts to use FU when none available
system.switch_cpus.iq.fu_full::FloatMultAcc            0      0.00%     10.78% # attempts to use FU when none available
system.switch_cpus.iq.fu_full::FloatDiv             0      0.00%     10.78% # attempts to use FU when none available
system.switch_cpus.iq.fu_full::FloatMisc            0      0.00%     10.78% # attempts to use FU when none available
system.switch_cpus.iq.fu_full::FloatSqrt            0      0.00%     10.78% # attempts to use FU when none available
system.switch_cpus.iq.fu_full::SimdAdd              0      0.00%     10.78% # attempts to use FU when none available
system.switch_cpus.iq.fu_full::SimdAddAcc            0      0.00%     10.78% # attempts to use FU when none available
system.switch_cpus.iq.fu_full::SimdAlu              0      0.00%     10.78% # attempts to use FU when none available
system.switch_cpus.iq.fu_full::SimdCmp              0      0.00%     10.78% # attempts to use FU when none available
system.switch_cpus.iq.fu_full::SimdCvt              0      0.00%     10.78% # attempts to use FU when none available
system.switch_cpus.iq.fu_full::SimdMisc             0      0.00%     10.78% # attempts to use FU when none available
system.switch_cpus.iq.fu_full::SimdMult             0      0.00%     10.78% # attempts to use FU when none available
system.switch_cpus.iq.fu_full::SimdMultAcc            0      0.00%     10.78% # attempts to use FU when none available
system.switch_cpus.iq.fu_full::SimdShift            0      0.00%     10.78% # attempts to use FU when none available
system.switch_cpus.iq.fu_full::SimdShiftAcc            0      0.00%     10.78% # attempts to use FU when none available
system.switch_cpus.iq.fu_full::SimdDiv              0      0.00%     10.78% # attempts to use FU when none available
system.switch_cpus.iq.fu_full::SimdSqrt             0      0.00%     10.78% # attempts to use FU when none available
system.switch_cpus.iq.fu_full::SimdFloatAdd            0      0.00%     10.78% # attempts to use FU when none available
system.switch_cpus.iq.fu_full::SimdFloatAlu            0      0.00%     10.78% # attempts to use FU when none available
system.switch_cpus.iq.fu_full::SimdFloatCmp            0      0.00%     10.78% # attempts to use FU when none available
system.switch_cpus.iq.fu_full::SimdFloatCvt            0      0.00%     10.78% # attempts to use FU when none available
system.switch_cpus.iq.fu_full::SimdFloatDiv            0      0.00%     10.78% # attempts to use FU when none available
system.switch_cpus.iq.fu_full::SimdFloatMisc            0      0.00%     10.78% # attempts to use FU when none available
system.switch_cpus.iq.fu_full::SimdFloatMult            0      0.00%     10.78% # attempts to use FU when none available
system.switch_cpus.iq.fu_full::SimdFloatMultAcc            0      0.00%     10.78% # attempts to use FU when none available
system.switch_cpus.iq.fu_full::SimdFloatSqrt            0      0.00%     10.78% # attempts to use FU when none available
system.switch_cpus.iq.fu_full::SimdReduceAdd            0      0.00%     10.78% # attempts to use FU when none available
system.switch_cpus.iq.fu_full::SimdReduceAlu            0      0.00%     10.78% # attempts to use FU when none available
system.switch_cpus.iq.fu_full::SimdReduceCmp            0      0.00%     10.78% # attempts to use FU when none available
system.switch_cpus.iq.fu_full::SimdFloatReduceAdd            0      0.00%     10.78% # attempts to use FU when none available
system.switch_cpus.iq.fu_full::SimdFloatReduceCmp            0      0.00%     10.78% # attempts to use FU when none available
system.switch_cpus.iq.fu_full::SimdAes              0      0.00%     10.78% # attempts to use FU when none available
system.switch_cpus.iq.fu_full::SimdAesMix            0      0.00%     10.78% # attempts to use FU when none available
system.switch_cpus.iq.fu_full::SimdSha1Hash            0      0.00%     10.78% # attempts to use FU when none available
system.switch_cpus.iq.fu_full::SimdSha1Hash2            0      0.00%     10.78% # attempts to use FU when none available
system.switch_cpus.iq.fu_full::SimdSha256Hash            0      0.00%     10.78% # attempts to use FU when none available
system.switch_cpus.iq.fu_full::SimdSha256Hash2            0      0.00%     10.78% # attempts to use FU when none available
system.switch_cpus.iq.fu_full::SimdShaSigma2            0      0.00%     10.78% # attempts to use FU when none available
system.switch_cpus.iq.fu_full::SimdShaSigma3            0      0.00%     10.78% # attempts to use FU when none available
system.switch_cpus.iq.fu_full::SimdPredAlu            0      0.00%     10.78% # attempts to use FU when none available
system.switch_cpus.iq.fu_full::MemRead          21670     30.77%     41.55% # attempts to use FU when none available
system.switch_cpus.iq.fu_full::MemWrite           677      0.96%     42.52% # attempts to use FU when none available
system.switch_cpus.iq.fu_full::FloatMemRead           20      0.03%     42.54% # attempts to use FU when none available
system.switch_cpus.iq.fu_full::FloatMemWrite        40460     57.46%    100.00% # attempts to use FU when none available
system.switch_cpus.iq.fu_full::IprAccess            0      0.00%    100.00% # attempts to use FU when none available
system.switch_cpus.iq.fu_full::InstPrefetch            0      0.00%    100.00% # attempts to use FU when none available
system.switch_cpus.iq.int_alu_accesses        9799438                       # Number of integer alu accesses
system.switch_cpus.iq.int_inst_queue_reads    250526168                       # Number of integer instruction queue reads
system.switch_cpus.iq.int_inst_queue_wakeup_accesses      9747206                       # Number of integer instruction queue wakeup accesses
system.switch_cpus.iq.int_inst_queue_writes     10673356                       # Number of integer instruction queue writes
system.switch_cpus.iq.iqInstsAdded           20896179                       # Number of instructions added to the IQ (excludes non-spec)
system.switch_cpus.iq.iqInstsIssued          20798710                       # Number of instructions issued
system.switch_cpus.iq.iqNonSpecInstsAdded          127                       # Number of non-speculative instructions added to the IQ
system.switch_cpus.iq.iqSquashedInstsExamined      1467032                       # Number of squashed instructions iterated over during squash; mainly for profiling
system.switch_cpus.iq.iqSquashedInstsIssued         2670                       # Number of squashed instructions issued
system.switch_cpus.iq.iqSquashedNonSpecRemoved           61                       # Number of squashed non-spec instructions that were removed
system.switch_cpus.iq.iqSquashedOperandsExamined      2952939                       # Number of squashed operands that are examined and possibly removed from graph
system.switch_cpus.iq.issued_per_cycle::samples    230941434                       # Number of insts issued each cycle
system.switch_cpus.iq.issued_per_cycle::mean     0.090061                       # Number of insts issued each cycle
system.switch_cpus.iq.issued_per_cycle::stdev     0.440954                       # Number of insts issued each cycle
system.switch_cpus.iq.issued_per_cycle::underflows            0      0.00%      0.00% # Number of insts issued each cycle
system.switch_cpus.iq.issued_per_cycle::0    216879727     93.91%     93.91% # Number of insts issued each cycle
system.switch_cpus.iq.issued_per_cycle::1     10920070      4.73%     98.64% # Number of insts issued each cycle
system.switch_cpus.iq.issued_per_cycle::2      1247621      0.54%     99.18% # Number of insts issued each cycle
system.switch_cpus.iq.issued_per_cycle::3       713877      0.31%     99.49% # Number of insts issued each cycle
system.switch_cpus.iq.issued_per_cycle::4       951662      0.41%     99.90% # Number of insts issued each cycle
system.switch_cpus.iq.issued_per_cycle::5        52203      0.02%     99.92% # Number of insts issued each cycle
system.switch_cpus.iq.issued_per_cycle::6        85117      0.04%     99.96% # Number of insts issued each cycle
system.switch_cpus.iq.issued_per_cycle::7        65854      0.03%     99.99% # Number of insts issued each cycle
system.switch_cpus.iq.issued_per_cycle::8        25303      0.01%    100.00% # Number of insts issued each cycle
system.switch_cpus.iq.issued_per_cycle::overflows            0      0.00%    100.00% # Number of insts issued each cycle
system.switch_cpus.iq.issued_per_cycle::min_value            0                       # Number of insts issued each cycle
system.switch_cpus.iq.issued_per_cycle::max_value            8                       # Number of insts issued each cycle
system.switch_cpus.iq.issued_per_cycle::total    230941434                       # Number of insts issued each cycle
system.switch_cpus.iq.rate                   0.090027                       # Inst issue rate
system.switch_cpus.iq.vec_alu_accesses              0                       # Number of vector alu accesses
system.switch_cpus.iq.vec_inst_queue_reads            0                       # Number of vector instruction queue reads
system.switch_cpus.iq.vec_inst_queue_wakeup_accesses            0                       # Number of vector instruction queue wakeup accesses
system.switch_cpus.iq.vec_inst_queue_writes            0                       # Number of vector instruction queue writes
system.switch_cpus.itb.rdAccesses                   0                       # TLB accesses on read requests
system.switch_cpus.itb.rdMisses                     0                       # TLB misses on read requests
system.switch_cpus.itb.wrAccesses             3002913                       # TLB accesses on write requests
system.switch_cpus.itb.wrMisses                   584                       # TLB misses on write requests
system.switch_cpus.memDep0.conflictingLoads         8067                       # Number of conflicting loads.
system.switch_cpus.memDep0.conflictingStores         6710                       # Number of conflicting stores.
system.switch_cpus.memDep0.insertedLoads       244184                       # Number of loads inserted to the mem dependence unit.
system.switch_cpus.memDep0.insertedStores     11170202                       # Number of stores inserted to the mem dependence unit.
system.switch_cpus.misc_regfile_reads        14339901                       # number of misc regfile reads
system.switch_cpus.misc_regfile_writes             37                       # number of misc regfile writes
system.switch_cpus.numCycles                231027722                       # number of cpu cycles simulated
system.switch_cpus.numWorkItemsCompleted            0                       # number of work items this cpu completed
system.switch_cpus.numWorkItemsStarted              0                       # number of work items this cpu started
system.switch_cpus.rename.BlockCycles       110423602                       # Number of cycles rename is blocking
system.switch_cpus.rename.CommittedMaps      13553646                       # Number of HB maps that are committed
system.switch_cpus.rename.IQFullEvents         223405                       # Number of times rename has blocked due to IQ full
system.switch_cpus.rename.IdleCycles          1803529                       # Number of cycles rename is idle
system.switch_cpus.rename.LQFullEvents           4272                       # Number of times rename has blocked due to LQ full
system.switch_cpus.rename.ROBFullEvents          4339                       # Number of times rename has blocked due to ROB full
system.switch_cpus.rename.RenameLookups      66674151                       # Number of register rename lookups that rename has made
system.switch_cpus.rename.RenamedInsts       20974273                       # Number of instructions processed by rename
system.switch_cpus.rename.RenamedOperands     14745751                       # Number of destination operands rename has renamed
system.switch_cpus.rename.RunCycles           1911452                       # Number of cycles rename is running
system.switch_cpus.rename.SQFullEvents      116539940                       # Number of times rename has blocked due to SQ full
system.switch_cpus.rename.SquashCycles          28612                       # Number of cycles rename is squashing
system.switch_cpus.rename.UnblockCycles     116769717                       # Number of cycles rename is unblocking
system.switch_cpus.rename.UndoneMaps          1192105                       # Number of HB maps that are undone due to squashing
system.switch_cpus.rename.fp_rename_lookups     11042827                       # Number of floating rename lookups
system.switch_cpus.rename.int_rename_lookups     33345347                       # Number of integer rename lookups
system.switch_cpus.rename.serializeStallCycles         4521                       # count of cycles rename stalled for serializing inst
system.switch_cpus.rename.serializingInsts          122                       # count of serializing insts renamed
system.switch_cpus.rename.skidInsts          14620311                       # count of insts added to the skid buffer
system.switch_cpus.rename.tempSerializingInsts           95                       # count of temporary serializing insts renamed
system.switch_cpus.rob.rob_reads            251258118                       # The number of ROB reads
system.switch_cpus.rob.rob_writes            41940379                       # The number of ROB writes
system.switch_cpus.timesIdled                    1188                       # Number of times that the entire CPU went into an idle state and unscheduled itself
system.tol2bus.snoop_filter.hit_multi_requests            1                       # Number of requests hitting in the snoop filter with multiple (>1) holders of the requested data.
system.tol2bus.snoop_filter.hit_multi_snoops            0                       # Number of snoops hitting in the snoop filter with multiple (>1) holders of the requested data.
system.tol2bus.snoop_filter.hit_single_requests      1305267                       # Number of requests hitting in the snoop filter with a single holder of the requested data.
system.tol2bus.snoop_filter.hit_single_snoops         1069                       # Number of snoops hitting in the snoop filter with a single holder of the requested data.
system.tol2bus.snoop_filter.tot_requests      2610662                       # Total number of requests made to the snoop filter.
system.tol2bus.snoop_filter.tot_snoops           1069                       # Total number of snoops made to the snoop filter.
system.membus.trans_dist::ReadResp               4062                       # Transaction distribution
system.membus.trans_dist::WritebackDirty      1297449                       # Transaction distribution
system.membus.trans_dist::CleanEvict             3867                       # Transaction distribution
system.membus.trans_dist::ReadExReq           1297574                       # Transaction distribution
system.membus.trans_dist::ReadExResp          1297574                       # Transaction distribution
system.membus.trans_dist::ReadSharedReq          4062                       # Transaction distribution
system.membus.pkt_count_system.l2.mem_side::system.mem_ctrls.port      3904588                       # Packet count per connected master and slave (bytes)
system.membus.pkt_count_system.l2.mem_side::total      3904588                       # Packet count per connected master and slave (bytes)
system.membus.pkt_count::total                3904588                       # Packet count per connected master and slave (bytes)
system.membus.pkt_size_system.l2.mem_side::system.mem_ctrls.port    166341440                       # Cumulative packet size per connected master and slave (bytes)
system.membus.pkt_size_system.l2.mem_side::total    166341440                       # Cumulative packet size per connected master and slave (bytes)
system.membus.pkt_size::total               166341440                       # Cumulative packet size per connected master and slave (bytes)
system.membus.snoops                                0                       # Total snoops (count)
system.membus.snoopTraffic                          0                       # Total snoop traffic (bytes)
system.membus.snoop_fanout::samples           1301636                       # Request fanout histogram
system.membus.snoop_fanout::mean                    0                       # Request fanout histogram
system.membus.snoop_fanout::stdev                   0                       # Request fanout histogram
system.membus.snoop_fanout::underflows              0      0.00%      0.00% # Request fanout histogram
system.membus.snoop_fanout::0                 1301636    100.00%    100.00% # Request fanout histogram
system.membus.snoop_fanout::1                       0      0.00%    100.00% # Request fanout histogram
system.membus.snoop_fanout::overflows               0      0.00%    100.00% # Request fanout histogram
system.membus.snoop_fanout::min_value               0                       # Request fanout histogram
system.membus.snoop_fanout::max_value               0                       # Request fanout histogram
system.membus.snoop_fanout::total             1301636                       # Request fanout histogram
system.membus.reqLayer2.occupancy          7794374000                       # Layer occupancy (ticks)
system.membus.reqLayer2.utilization               6.7                       # Layer utilization (%)
system.membus.respLayer1.occupancy         6850884500                       # Layer occupancy (ticks)
system.membus.respLayer1.utilization              5.9                       # Layer utilization (%)
system.membus.power_state.pwrStateResidencyTicks::UNDEFINED 115513871500                       # Cumulative time (in ticks) in various power states
system.switch_cpus.dtb.walker.power_state.pwrStateResidencyTicks::UNDEFINED 115513871500                       # Cumulative time (in ticks) in various power states
system.switch_cpus.itb.walker.power_state.pwrStateResidencyTicks::UNDEFINED 115513871500                       # Cumulative time (in ticks) in various power states
system.switch_cpus.power_state.pwrStateResidencyTicks::OFF 115513871500                       # Cumulative time (in ticks) in various power states
system.tol2bus.trans_dist::ReadResp              7381                       # Transaction distribution
system.tol2bus.trans_dist::WritebackDirty      2595975                       # Transaction distribution
system.tol2bus.trans_dist::WritebackClean         2269                       # Transaction distribution
system.tol2bus.trans_dist::CleanEvict            9197                       # Transaction distribution
system.tol2bus.trans_dist::ReadExReq          1298014                       # Transaction distribution
system.tol2bus.trans_dist::ReadExResp         1298014                       # Transaction distribution
system.tol2bus.trans_dist::ReadCleanReq          2333                       # Transaction distribution
system.tol2bus.trans_dist::ReadSharedReq         5048                       # Transaction distribution
system.tol2bus.pkt_count_system.cpu.icache.mem_side::system.l2.cpu_side         6935                       # Packet count per connected master and slave (bytes)
system.tol2bus.pkt_count_system.cpu.dcache.mem_side::system.l2.cpu_side      3909122                       # Packet count per connected master and slave (bytes)
system.tol2bus.pkt_count::total               3916057                       # Packet count per connected master and slave (bytes)
system.tol2bus.pkt_size_system.cpu.icache.mem_side::system.l2.cpu_side       294528                       # Cumulative packet size per connected master and slave (bytes)
system.tol2bus.pkt_size_system.cpu.dcache.mem_side::system.l2.cpu_side    166501632                       # Cumulative packet size per connected master and slave (bytes)
system.tol2bus.pkt_size::total              166796160                       # Cumulative packet size per connected master and slave (bytes)
system.tol2bus.snoops                         1302174                       # Total snoops (count)
system.tol2bus.snoopTraffic                  83036736                       # Total snoop traffic (bytes)
system.tol2bus.snoop_fanout::samples          2607569                       # Request fanout histogram
system.tol2bus.snoop_fanout::mean            0.000410                       # Request fanout histogram
system.tol2bus.snoop_fanout::stdev           0.020253                       # Request fanout histogram
system.tol2bus.snoop_fanout::underflows             0      0.00%      0.00% # Request fanout histogram
system.tol2bus.snoop_fanout::0                2606499     99.96%     99.96% # Request fanout histogram
system.tol2bus.snoop_fanout::1                   1070      0.04%    100.00% # Request fanout histogram
system.tol2bus.snoop_fanout::2                      0      0.00%    100.00% # Request fanout histogram
system.tol2bus.snoop_fanout::3                      0      0.00%    100.00% # Request fanout histogram
system.tol2bus.snoop_fanout::4                      0      0.00%    100.00% # Request fanout histogram
system.tol2bus.snoop_fanout::overflows              0      0.00%    100.00% # Request fanout histogram
system.tol2bus.snoop_fanout::min_value              0                       # Request fanout histogram
system.tol2bus.snoop_fanout::max_value              1                       # Request fanout histogram
system.tol2bus.snoop_fanout::total            2607569                       # Request fanout histogram
system.tol2bus.reqLayer0.occupancy         2606124500                       # Layer occupancy (ticks)
system.tol2bus.reqLayer0.utilization              2.3                       # Layer utilization (%)
system.tol2bus.respLayer1.occupancy        1954593496                       # Layer occupancy (ticks)
system.tol2bus.respLayer1.utilization             1.7                       # Layer utilization (%)
system.tol2bus.respLayer0.occupancy           3516460                       # Layer occupancy (ticks)
system.tol2bus.respLayer0.utilization             0.0                       # Layer utilization (%)
system.tol2bus.power_state.pwrStateResidencyTicks::UNDEFINED 115513871500                       # Cumulative time (in ticks) in various power states
system.voltage_domain.voltage                       1                       # Voltage in Volts
system.clk_domain.clock                          1000                       # Clock period in ticks
system.l2.demand_hits::.switch_cpus.inst         1135                       # number of demand (read+write) hits
system.l2.demand_hits::.switch_cpus.data         2623                       # number of demand (read+write) hits
system.l2.demand_hits::total                     3758                       # number of demand (read+write) hits
system.l2.overall_hits::.switch_cpus.inst         1135                       # number of overall hits
system.l2.overall_hits::.switch_cpus.data         2623                       # number of overall hits
system.l2.overall_hits::total                    3758                       # number of overall hits
system.l2.demand_misses::.cpu.inst                  2                       # number of demand (read+write) misses
system.l2.demand_misses::.cpu.data                  1                       # number of demand (read+write) misses
system.l2.demand_misses::.switch_cpus.inst         1196                       # number of demand (read+write) misses
system.l2.demand_misses::.switch_cpus.data      1300438                       # number of demand (read+write) misses
system.l2.demand_misses::total                1301637                       # number of demand (read+write) misses
system.l2.overall_misses::.cpu.inst                 2                       # number of overall misses
system.l2.overall_misses::.cpu.data                 1                       # number of overall misses
system.l2.overall_misses::.switch_cpus.inst         1196                       # number of overall misses
system.l2.overall_misses::.switch_cpus.data      1300438                       # number of overall misses
system.l2.overall_misses::total               1301637                       # number of overall misses
system.l2.demand_miss_latency::.switch_cpus.inst     96601500                       # number of demand (read+write) miss cycles
system.l2.demand_miss_latency::.switch_cpus.data 102742506500                       # number of demand (read+write) miss cycles
system.l2.demand_miss_latency::total     102839108000                       # number of demand (read+write) miss cycles
system.l2.overall_miss_latency::.switch_cpus.inst     96601500                       # number of overall miss cycles
system.l2.overall_miss_latency::.switch_cpus.data 102742506500                       # number of overall miss cycles
system.l2.overall_miss_latency::total    102839108000                       # number of overall miss cycles
system.l2.demand_accesses::.cpu.inst                2                       # number of demand (read+write) accesses
system.l2.demand_accesses::.cpu.data                1                       # number of demand (read+write) accesses
system.l2.demand_accesses::.switch_cpus.inst         2331                       # number of demand (read+write) accesses
system.l2.demand_accesses::.switch_cpus.data      1303061                       # number of demand (read+write) accesses
system.l2.demand_accesses::total              1305395                       # number of demand (read+write) accesses
system.l2.overall_accesses::.cpu.inst               2                       # number of overall (read+write) accesses
system.l2.overall_accesses::.cpu.data               1                       # number of overall (read+write) accesses
system.l2.overall_accesses::.switch_cpus.inst         2331                       # number of overall (read+write) accesses
system.l2.overall_accesses::.switch_cpus.data      1303061                       # number of overall (read+write) accesses
system.l2.overall_accesses::total             1305395                       # number of overall (read+write) accesses
system.l2.demand_miss_rate::.cpu.inst               1                       # miss rate for demand accesses
system.l2.demand_miss_rate::.cpu.data               1                       # miss rate for demand accesses
system.l2.demand_miss_rate::.switch_cpus.inst     0.513085                       # miss rate for demand accesses
system.l2.demand_miss_rate::.switch_cpus.data     0.997987                       # miss rate for demand accesses
system.l2.demand_miss_rate::total            0.997121                       # miss rate for demand accesses
system.l2.overall_miss_rate::.cpu.inst              1                       # miss rate for overall accesses
system.l2.overall_miss_rate::.cpu.data              1                       # miss rate for overall accesses
system.l2.overall_miss_rate::.switch_cpus.inst     0.513085                       # miss rate for overall accesses
system.l2.overall_miss_rate::.switch_cpus.data     0.997987                       # miss rate for overall accesses
system.l2.overall_miss_rate::total           0.997121                       # miss rate for overall accesses
system.l2.demand_avg_miss_latency::.switch_cpus.inst 80770.484950                       # average overall miss latency
system.l2.demand_avg_miss_latency::.switch_cpus.data 79006.078337                       # average overall miss latency
system.l2.demand_avg_miss_latency::total 79007.517457                       # average overall miss latency
system.l2.overall_avg_miss_latency::.switch_cpus.inst 80770.484950                       # average overall miss latency
system.l2.overall_avg_miss_latency::.switch_cpus.data 79006.078337                       # average overall miss latency
system.l2.overall_avg_miss_latency::total 79007.517457                       # average overall miss latency
system.l2.blocked_cycles::no_mshrs                  0                       # number of cycles access was blocked
system.l2.blocked_cycles::no_targets                0                       # number of cycles access was blocked
system.l2.blocked::no_mshrs                         0                       # number of cycles access was blocked
system.l2.blocked::no_targets                       0                       # number of cycles access was blocked
system.l2.avg_blocked_cycles::no_mshrs            nan                       # average number of cycles each access was blocked
system.l2.avg_blocked_cycles::no_targets          nan                       # average number of cycles each access was blocked
system.l2.writebacks::.writebacks             1297449                       # number of writebacks
system.l2.writebacks::total                   1297449                       # number of writebacks
system.l2.demand_mshr_hits::.switch_cpus.inst            1                       # number of demand (read+write) MSHR hits
system.l2.demand_mshr_hits::total                   1                       # number of demand (read+write) MSHR hits
system.l2.overall_mshr_hits::.switch_cpus.inst            1                       # number of overall MSHR hits
system.l2.overall_mshr_hits::total                  1                       # number of overall MSHR hits
system.l2.demand_mshr_misses::.switch_cpus.inst         1195                       # number of demand (read+write) MSHR misses
system.l2.demand_mshr_misses::.switch_cpus.data      1300438                       # number of demand (read+write) MSHR misses
system.l2.demand_mshr_misses::total           1301633                       # number of demand (read+write) MSHR misses
system.l2.overall_mshr_misses::.switch_cpus.inst         1195                       # number of overall MSHR misses
system.l2.overall_mshr_misses::.switch_cpus.data      1300438                       # number of overall MSHR misses
system.l2.overall_mshr_misses::total          1301633                       # number of overall MSHR misses
system.l2.demand_mshr_miss_latency::.switch_cpus.inst     84555000                       # number of demand (read+write) MSHR miss cycles
system.l2.demand_mshr_miss_latency::.switch_cpus.data  89738126500                       # number of demand (read+write) MSHR miss cycles
system.l2.demand_mshr_miss_latency::total  89822681500                       # number of demand (read+write) MSHR miss cycles
system.l2.overall_mshr_miss_latency::.switch_cpus.inst     84555000                       # number of overall MSHR miss cycles
system.l2.overall_mshr_miss_latency::.switch_cpus.data  89738126500                       # number of overall MSHR miss cycles
system.l2.overall_mshr_miss_latency::total  89822681500                       # number of overall MSHR miss cycles
system.l2.demand_mshr_miss_rate::.switch_cpus.inst     0.512656                       # mshr miss rate for demand accesses
system.l2.demand_mshr_miss_rate::.switch_cpus.data     0.997987                       # mshr miss rate for demand accesses
system.l2.demand_mshr_miss_rate::total       0.997118                       # mshr miss rate for demand accesses
system.l2.overall_mshr_miss_rate::.switch_cpus.inst     0.512656                       # mshr miss rate for overall accesses
system.l2.overall_mshr_miss_rate::.switch_cpus.data     0.997987                       # mshr miss rate for overall accesses
system.l2.overall_mshr_miss_rate::total      0.997118                       # mshr miss rate for overall accesses
system.l2.demand_avg_mshr_miss_latency::.switch_cpus.inst 70757.322176                       # average overall mshr miss latency
system.l2.demand_avg_mshr_miss_latency::.switch_cpus.data 69006.078337                       # average overall mshr miss latency
system.l2.demand_avg_mshr_miss_latency::total 69007.686114                       # average overall mshr miss latency
system.l2.overall_avg_mshr_miss_latency::.switch_cpus.inst 70757.322176                       # average overall mshr miss latency
system.l2.overall_avg_mshr_miss_latency::.switch_cpus.data 69006.078337                       # average overall mshr miss latency
system.l2.overall_avg_mshr_miss_latency::total 69007.686114                       # average overall mshr miss latency
system.l2.replacements                        1302174                       # number of replacements
system.l2.WritebackDirty_hits::.writebacks      1298526                       # number of WritebackDirty hits
system.l2.WritebackDirty_hits::total          1298526                       # number of WritebackDirty hits
system.l2.WritebackDirty_accesses::.writebacks      1298526                       # number of WritebackDirty accesses(hits+misses)
system.l2.WritebackDirty_accesses::total      1298526                       # number of WritebackDirty accesses(hits+misses)
system.l2.WritebackClean_hits::.writebacks         2269                       # number of WritebackClean hits
system.l2.WritebackClean_hits::total             2269                       # number of WritebackClean hits
system.l2.WritebackClean_accesses::.writebacks         2269                       # number of WritebackClean accesses(hits+misses)
system.l2.WritebackClean_accesses::total         2269                       # number of WritebackClean accesses(hits+misses)
system.l2.CleanEvict_mshr_misses::.writebacks          211                       # number of CleanEvict MSHR misses
system.l2.CleanEvict_mshr_misses::total           211                       # number of CleanEvict MSHR misses
system.l2.CleanEvict_mshr_miss_rate::.writebacks          inf                       # mshr miss rate for CleanEvict accesses
system.l2.CleanEvict_mshr_miss_rate::total          inf                       # mshr miss rate for CleanEvict accesses
system.l2.ReadExReq_hits::.switch_cpus.data          440                       # number of ReadExReq hits
system.l2.ReadExReq_hits::total                   440                       # number of ReadExReq hits
system.l2.ReadExReq_misses::.cpu.data               1                       # number of ReadExReq misses
system.l2.ReadExReq_misses::.switch_cpus.data      1297573                       # number of ReadExReq misses
system.l2.ReadExReq_misses::total             1297574                       # number of ReadExReq misses
system.l2.ReadExReq_miss_latency::.switch_cpus.data 102509419000                       # number of ReadExReq miss cycles
system.l2.ReadExReq_miss_latency::total  102509419000                       # number of ReadExReq miss cycles
system.l2.ReadExReq_accesses::.cpu.data             1                       # number of ReadExReq accesses(hits+misses)
system.l2.ReadExReq_accesses::.switch_cpus.data      1298013                       # number of ReadExReq accesses(hits+misses)
system.l2.ReadExReq_accesses::total           1298014                       # number of ReadExReq accesses(hits+misses)
system.l2.ReadExReq_miss_rate::.cpu.data            1                       # miss rate for ReadExReq accesses
system.l2.ReadExReq_miss_rate::.switch_cpus.data     0.999661                       # miss rate for ReadExReq accesses
system.l2.ReadExReq_miss_rate::total         0.999661                       # miss rate for ReadExReq accesses
system.l2.ReadExReq_avg_miss_latency::.switch_cpus.data 79000.887811                       # average ReadExReq miss latency
system.l2.ReadExReq_avg_miss_latency::total 79000.826928                       # average ReadExReq miss latency
system.l2.ReadExReq_mshr_misses::.switch_cpus.data      1297573                       # number of ReadExReq MSHR misses
system.l2.ReadExReq_mshr_misses::total        1297573                       # number of ReadExReq MSHR misses
system.l2.ReadExReq_mshr_miss_latency::.switch_cpus.data  89533689000                       # number of ReadExReq MSHR miss cycles
system.l2.ReadExReq_mshr_miss_latency::total  89533689000                       # number of ReadExReq MSHR miss cycles
system.l2.ReadExReq_mshr_miss_rate::.switch_cpus.data     0.999661                       # mshr miss rate for ReadExReq accesses
system.l2.ReadExReq_mshr_miss_rate::total     0.999660                       # mshr miss rate for ReadExReq accesses
system.l2.ReadExReq_avg_mshr_miss_latency::.switch_cpus.data 69000.887811                       # average ReadExReq mshr miss latency
system.l2.ReadExReq_avg_mshr_miss_latency::total 69000.887811                       # average ReadExReq mshr miss latency
system.l2.ReadCleanReq_hits::.switch_cpus.inst         1135                       # number of ReadCleanReq hits
system.l2.ReadCleanReq_hits::total               1135                       # number of ReadCleanReq hits
system.l2.ReadCleanReq_misses::.cpu.inst            2                       # number of ReadCleanReq misses
system.l2.ReadCleanReq_misses::.switch_cpus.inst         1196                       # number of ReadCleanReq misses
system.l2.ReadCleanReq_misses::total             1198                       # number of ReadCleanReq misses
[...]
system.cpu.interrupts.clk_domain.clock           8000                       # Clock period in ticks
system.cpu.itb_walker_cache.blocked_cycles::no_mshrs            0                       # number of cycles access was blocked
system.cpu.itb_walker_cache.blocked_cycles::no_targets            0                       # number of cycles access was blocked
system.cpu.itb_walker_cache.blocked::no_mshrs            0                       # number of cycles access was blocked
system.cpu.itb_walker_cache.blocked::no_targets            0                       # number of cycles access was blocked
system.cpu.itb_walker_cache.avg_blocked_cycles::no_mshrs          nan                       # average number of cycles each access was blocked
system.cpu.itb_walker_cache.avg_blocked_cycles::no_targets          nan                       # average number of cycles each access was blocked
system.cpu.itb_walker_cache.replacements            0                       # number of replacements
system.cpu.itb_walker_cache.power_state.pwrStateResidencyTicks::UNDEFINED 128187086500                       # Cumulative time (in ticks) in various power states
system.cpu.itb_walker_cache.tags.tagsinuse            0                       # Cycle average of tags in use
system.cpu.itb_walker_cache.tags.total_refs            0                       # Total number of references to valid blocks.
system.cpu.itb_walker_cache.tags.sampled_refs            0                       # Sample count of references to valid blocks.
system.cpu.itb_walker_cache.tags.avg_refs          nan                       # Average number of references to valid blocks.
system.cpu.itb_walker_cache.tags.warmup_cycle            0                       # Cycle when the warmup percentage was hit.
system.cpu.itb_walker_cache.tags.tag_accesses            0                       # Number of tag accesses
system.cpu.itb_walker_cache.tags.data_accesses            0                       # Number of data accesses
system.cpu.itb_walker_cache.tags.power_state.pwrStateResidencyTicks::UNDEFINED 128187086500                       # Cumulative time (in ticks) in various power states
system.cpu.itb.walker.power_state.pwrStateResidencyTicks::UNDEFINED 128187086500                       # Cumulative time (in ticks) in various power states
system.cpu.dtb_walker_cache.blocked_cycles::no_mshrs            0                       # number of cycles access was blocked
system.cpu.dtb_walker_cache.blocked_cycles::no_targets            0                       # number of cycles access was blocked
system.cpu.dtb_walker_cache.blocked::no_mshrs            0                       # number of cycles access was blocked
system.cpu.dtb_walker_cache.blocked::no_targets            0                       # number of cycles access was blocked
system.cpu.dtb_walker_cache.avg_blocked_cycles::no_mshrs          nan                       # average number of cycles each access was blocked
system.cpu.dtb_walker_cache.avg_blocked_cycles::no_targets          nan                       # average number of cycles each access was blocked
system.cpu.dtb_walker_cache.replacements            0                       # number of replacements
system.cpu.dtb_walker_cache.power_state.pwrStateResidencyTicks::UNDEFINED 128187086500                       # Cumulative time (in ticks) in various power states
system.cpu.dtb_walker_cache.tags.tagsinuse            0                       # Cycle average of tags in use
system.cpu.dtb_walker_cache.tags.total_refs            0                       # Total number of references to valid blocks.
system.cpu.dtb_walker_cache.tags.sampled_refs            0                       # Sample count of references to valid blocks.
system.cpu.dtb_walker_cache.tags.avg_refs          nan                       # Average number of references to valid blocks.
system.cpu.dtb_walker_cache.tags.warmup_cycle            0                       # Cycle when the warmup percentage was hit.
system.cpu.dtb_walker_cache.tags.tag_accesses            0                       # Number of tag accesses
system.cpu.dtb_walker_cache.tags.data_accesses            0                       # Number of data accesses
system.cpu.dtb_walker_cache.tags.power_state.pwrStateResidencyTicks::UNDEFINED 128187086500                       # Cumulative time (in ticks) in various power states
system.cpu.dcache.demand_hits::.cpu.data            6                       # number of demand (read+write) hits
system.cpu.dcache.demand_hits::.switch_cpus.data     10395835                       # number of demand (read+write) hits
system.cpu.dcache.demand_hits::total         10395841                       # number of demand (read+write) hits
system.cpu.dcache.overall_hits::.cpu.data            6                       # number of overall hits
system.cpu.dcache.overall_hits::.switch_cpus.data     10395835                       # number of overall hits
system.cpu.dcache.overall_hits::total        10395841                       # number of overall hits
system.cpu.dcache.demand_misses::.cpu.data            1                       # number of demand (read+write) misses
system.cpu.dcache.demand_misses::.switch_cpus.data      1457922                       # number of demand (read+write) misses
system.cpu.dcache.demand_misses::total        1457923                       # number of demand (read+write) misses
system.cpu.dcache.overall_misses::.cpu.data            1                       # number of overall misses
system.cpu.dcache.overall_misses::.switch_cpus.data      1457922                       # number of overall misses
system.cpu.dcache.overall_misses::total       1457923                       # number of overall misses
system.cpu.dcache.demand_miss_latency::.switch_cpus.data 118308690981                       # number of demand (read+write) miss cycles
system.cpu.dcache.demand_miss_latency::total 118308690981                       # number of demand (read+write) miss cycles
system.cpu.dcache.overall_miss_latency::.switch_cpus.data 118308690981                       # number of overall miss cycles
system.cpu.dcache.overall_miss_latency::total 118308690981                       # number of overall miss cycles
system.cpu.dcache.demand_accesses::.cpu.data            7                       # number of demand (read+write) accesses
system.cpu.dcache.demand_accesses::.switch_cpus.data     11853757                       # number of demand (read+write) accesses
system.cpu.dcache.demand_accesses::total     11853764                       # number of demand (read+write) accesses
system.cpu.dcache.overall_accesses::.cpu.data            7                       # number of overall (read+write) accesses
system.cpu.dcache.overall_accesses::.switch_cpus.data     11853757                       # number of overall (read+write) accesses
system.cpu.dcache.overall_accesses::total     11853764                       # number of overall (read+write) accesses
system.cpu.dcache.demand_miss_rate::.cpu.data     0.142857                       # miss rate for demand accesses
system.cpu.dcache.demand_miss_rate::.switch_cpus.data     0.122992                       # miss rate for demand accesses
system.cpu.dcache.demand_miss_rate::total     0.122992                       # miss rate for demand accesses
system.cpu.dcache.overall_miss_rate::.cpu.data     0.142857                       # miss rate for overall accesses
system.cpu.dcache.overall_miss_rate::.switch_cpus.data     0.122992                       # miss rate for overall accesses
system.cpu.dcache.overall_miss_rate::total     0.122992                       # miss rate for overall accesses
system.cpu.dcache.demand_avg_miss_latency::.switch_cpus.data 81148.848142                       # average overall miss latency
system.cpu.dcache.demand_avg_miss_latency::total 81148.792481                       # average overall miss latency
system.cpu.dcache.overall_avg_miss_latency::.switch_cpus.data 81148.848142                       # average overall miss latency
system.cpu.dcache.overall_avg_miss_latency::total 81148.792481                       # average overall miss latency
system.cpu.dcache.blocked_cycles::no_mshrs        28006                       # number of cycles access was blocked
system.cpu.dcache.blocked_cycles::no_targets         1193                       # number of cycles access was blocked
system.cpu.dcache.blocked::no_mshrs               730                       # number of cycles access was blocked
system.cpu.dcache.blocked::no_targets               9                       # number of cycles access was blocked
system.cpu.dcache.avg_blocked_cycles::no_mshrs    38.364384                       # average number of cycles each access was blocked
system.cpu.dcache.avg_blocked_cycles::no_targets   132.555556                       # average number of cycles each access was blocked
system.cpu.dcache.writebacks::.writebacks      1441383                       # number of writebacks
system.cpu.dcache.writebacks::total           1441383                       # number of writebacks
system.cpu.dcache.demand_mshr_hits::.switch_cpus.data        12004                       # number of demand (read+write) MSHR hits
system.cpu.dcache.demand_mshr_hits::total        12004                       # number of demand (read+write) MSHR hits
system.cpu.dcache.overall_mshr_hits::.switch_cpus.data        12004                       # number of overall MSHR hits
system.cpu.dcache.overall_mshr_hits::total        12004                       # number of overall MSHR hits
system.cpu.dcache.demand_mshr_misses::.switch_cpus.data      1445918                       # number of demand (read+write) MSHR misses
system.cpu.dcache.demand_mshr_misses::total      1445918                       # number of demand (read+write) MSHR misses
system.cpu.dcache.overall_mshr_misses::.switch_cpus.data      1445918                       # number of overall MSHR misses
system.cpu.dcache.overall_mshr_misses::total      1445918                       # number of overall MSHR misses
system.cpu.dcache.demand_mshr_miss_latency::.switch_cpus.data 116222952481                       # number of demand (read+write) MSHR miss cycles
system.cpu.dcache.demand_mshr_miss_latency::total 116222952481                       # number of demand (read+write) MSHR miss cycles
system.cpu.dcache.overall_mshr_miss_latency::.switch_cpus.data 116222952481                       # number of overall MSHR miss cycles
system.cpu.dcache.overall_mshr_miss_latency::total 116222952481                       # number of overall MSHR miss cycles
system.cpu.dcache.demand_mshr_miss_rate::.switch_cpus.data     0.121980                       # mshr miss rate for demand accesses
system.cpu.dcache.demand_mshr_miss_rate::total     0.121980                       # mshr miss rate for demand accesses
system.cpu.dcache.overall_mshr_miss_rate::.switch_cpus.data     0.121980                       # mshr miss rate for overall accesses
system.cpu.dcache.overall_mshr_miss_rate::total     0.121980                       # mshr miss rate for overall accesses
system.cpu.dcache.demand_avg_mshr_miss_latency::.switch_cpus.data 80380.044014                       # average overall mshr miss latency
system.cpu.dcache.demand_avg_mshr_miss_latency::total 80380.044014                       # average overall mshr miss latency
system.cpu.dcache.overall_avg_mshr_miss_latency::.switch_cpus.data 80380.044014                       # average overall mshr miss latency
system.cpu.dcache.overall_avg_mshr_miss_latency::total 80380.044014                       # average overall mshr miss latency
system.cpu.dcache.replacements                1445855                       # number of replacements
system.cpu.dcache.ReadReq_hits::.switch_cpus.data       202469                       # number of ReadReq hits
system.cpu.dcache.ReadReq_hits::total          202469                       # number of ReadReq hits
system.cpu.dcache.ReadReq_misses::.switch_cpus.data        17034                       # number of ReadReq misses
system.cpu.dcache.ReadReq_misses::total         17034                       # number of ReadReq misses
system.cpu.dcache.ReadReq_miss_latency::.switch_cpus.data    908892500                       # number of ReadReq miss cycles
system.cpu.dcache.ReadReq_miss_latency::total    908892500                       # number of ReadReq miss cycles
system.cpu.dcache.ReadReq_accesses::.switch_cpus.data       219503                       # number of ReadReq accesses(hits+misses)
system.cpu.dcache.ReadReq_accesses::total       219503                       # number of ReadReq accesses(hits+misses)
system.cpu.dcache.ReadReq_miss_rate::.switch_cpus.data     0.077603                       # miss rate for ReadReq accesses
system.cpu.dcache.ReadReq_miss_rate::total     0.077603                       # miss rate for ReadReq accesses
system.cpu.dcache.ReadReq_avg_miss_latency::.switch_cpus.data 53357.549607                       # average ReadReq miss latency
system.cpu.dcache.ReadReq_avg_miss_latency::total 53357.549607                       # average ReadReq miss latency
system.cpu.dcache.ReadReq_mshr_hits::.switch_cpus.data        11980                       # number of ReadReq MSHR hits
system.cpu.dcache.ReadReq_mshr_hits::total        11980                       # number of ReadReq MSHR hits
system.cpu.dcache.ReadReq_mshr_misses::.switch_cpus.data         5054                       # number of ReadReq MSHR misses
system.cpu.dcache.ReadReq_mshr_misses::total         5054                       # number of ReadReq MSHR misses
system.cpu.dcache.ReadReq_mshr_miss_latency::.switch_cpus.data    264528500                       # number of ReadReq MSHR miss cycles
system.cpu.dcache.ReadReq_mshr_miss_latency::total    264528500                       # number of ReadReq MSHR miss cycles
system.cpu.dcache.ReadReq_mshr_miss_rate::.switch_cpus.data     0.023025                       # mshr miss rate for ReadReq accesses
system.cpu.dcache.ReadReq_mshr_miss_rate::total     0.023025                       # mshr miss rate for ReadReq accesses
system.cpu.dcache.ReadReq_avg_mshr_miss_latency::.switch_cpus.data 52340.423427                       # average ReadReq mshr miss latency
system.cpu.dcache.ReadReq_avg_mshr_miss_latency::total 52340.423427                       # average ReadReq mshr miss latency
system.cpu.dcache.WriteReq_hits::.cpu.data            6                       # number of WriteReq hits
system.cpu.dcache.WriteReq_hits::.switch_cpus.data     10193366                       # number of WriteReq hits
system.cpu.dcache.WriteReq_hits::total       10193372                       # number of WriteReq hits
system.cpu.dcache.WriteReq_misses::.cpu.data            1                       # number of WriteReq misses
system.cpu.dcache.WriteReq_misses::.switch_cpus.data      1440888                       # number of WriteReq misses
system.cpu.dcache.WriteReq_misses::total      1440889                       # number of WriteReq misses
system.cpu.dcache.WriteReq_miss_latency::.switch_cpus.data 117399798481                       # number of WriteReq miss cycles
system.cpu.dcache.WriteReq_miss_latency::total 117399798481                       # number of WriteReq miss cycles
system.cpu.dcache.WriteReq_accesses::.cpu.data            7                       # number of WriteReq accesses(hits+misses)
system.cpu.dcache.WriteReq_accesses::.switch_cpus.data     11634254                       # number of WriteReq accesses(hits+misses)
system.cpu.dcache.WriteReq_accesses::total     11634261                       # number of WriteReq accesses(hits+misses)
system.cpu.dcache.WriteReq_miss_rate::.cpu.data     0.142857                       # miss rate for WriteReq accesses
system.cpu.dcache.WriteReq_miss_rate::.switch_cpus.data     0.123849                       # miss rate for WriteReq accesses
system.cpu.dcache.WriteReq_miss_rate::total     0.123849                       # miss rate for WriteReq accesses
system.cpu.dcache.WriteReq_avg_miss_latency::.switch_cpus.data 81477.393441                       # average WriteReq miss latency
system.cpu.dcache.WriteReq_avg_miss_latency::total 81477.336895                       # average WriteReq miss latency
system.cpu.dcache.WriteReq_mshr_hits::.switch_cpus.data           24                       # number of WriteReq MSHR hits
system.cpu.dcache.WriteReq_mshr_hits::total           24                       # number of WriteReq MSHR hits
system.cpu.dcache.WriteReq_mshr_misses::.switch_cpus.data      1440864                       # number of WriteReq MSHR misses
system.cpu.dcache.WriteReq_mshr_misses::total      1440864                       # number of WriteReq MSHR misses
system.cpu.dcache.WriteReq_mshr_miss_latency::.switch_cpus.data 115958423981                       # number of WriteReq MSHR miss cycles
system.cpu.dcache.WriteReq_mshr_miss_latency::total 115958423981                       # number of WriteReq MSHR miss cycles
system.cpu.dcache.WriteReq_mshr_miss_rate::.switch_cpus.data     0.123847                       # mshr miss rate for WriteReq accesses
system.cpu.dcache.WriteReq_mshr_miss_rate::total     0.123847                       # mshr miss rate for WriteReq accesses
system.cpu.dcache.WriteReq_avg_mshr_miss_latency::.switch_cpus.data 80478.396282                       # average WriteReq mshr miss latency
system.cpu.dcache.WriteReq_avg_mshr_miss_latency::total 80478.396282                       # average WriteReq mshr miss latency
system.cpu.dcache.power_state.pwrStateResidencyTicks::UNDEFINED 128187086500                       # Cumulative time (in ticks) in various power states
system.cpu.dcache.tags.tagsinuse            63.998660                       # Cycle average of tags in use
system.cpu.dcache.tags.total_refs            11841760                       # Total number of references to valid blocks.
system.cpu.dcache.tags.sampled_refs           1445919                       # Sample count of references to valid blocks.
system.cpu.dcache.tags.avg_refs              8.189781                       # Average number of references to valid blocks.
system.cpu.dcache.tags.warmup_cycle              1500                       # Cycle when the warmup percentage was hit.
system.cpu.dcache.tags.occ_blocks::.cpu.data     0.000060                       # Average occupied blocks per requestor
system.cpu.dcache.tags.occ_blocks::.switch_cpus.data    63.998600                       # Average occupied blocks per requestor
system.cpu.dcache.tags.occ_percent::.cpu.data     0.000001                       # Average percentage of cache occupancy
system.cpu.dcache.tags.occ_percent::.switch_cpus.data     0.999978                       # Average percentage of cache occupancy
system.cpu.dcache.tags.occ_percent::total     0.999979                       # Average percentage of cache occupancy
system.cpu.dcache.tags.occ_task_id_blocks::1024           64                       # Occupied blocks per task id
system.cpu.dcache.tags.age_task_id_blocks_1024::0           64                       # Occupied blocks per task id
system.cpu.dcache.tags.occ_task_id_percent::1024            1                       # Percentage of cache occupancy per task id
system.cpu.dcache.tags.tag_accesses          25153447                       # Number of tag accesses
system.cpu.dcache.tags.data_accesses         25153447                       # Number of data accesses
system.cpu.dcache.tags.power_state.pwrStateResidencyTicks::UNDEFINED 128187086500                       # Cumulative time (in ticks) in various power states
system.cpu.power_state.numTransitions               1                       # Number of power state transitions
system.cpu.power_state.pwrStateResidencyTicks::ON        10500                       # Cumulative time (in ticks) in various power states
system.cpu.power_state.pwrStateResidencyTicks::OFF 128187076000                       # Cumulative time (in ticks) in various power states

---------- End Simulation Statistics   ----------
