
---------- Begin Simulation Statistics ----------
final_tick                                13443027000                       # Number of ticks from beginning of simulation (restored from checkpoints and never reset)
host_inst_rate                                 108573                       # Simulator instruction rate (inst/s)
host_mem_usage                                 879288                       # Number of bytes of host memory used
host_op_rate                                   207870                       # Simulator op (including micro ops) rate (op/s)
host_seconds                                    92.10                       # Real time elapsed on the host
host_tick_rate                              145953953                       # Simulator tick rate (ticks/s)
sim_freq                                 1000000000000                       # Frequency of simulated ticks
sim_insts                                    10000011                       # Number of instructions simulated
sim_ops                                      19145816                       # Number of ops (including micro ops) simulated
sim_seconds                                  0.013443                       # Number of seconds simulated
sim_ticks                                 13443027000                       # Number of ticks simulated
system.cpu.Branches                                 1                       # Number of branches fetched
system.cpu.committedInsts                          10                       # Number of instructions committed
system.cpu.committedOps                            21                       # Number of ops (including micro ops) committed
system.cpu.dtb.rdAccesses                           0                       # TLB accesses on read requests
system.cpu.dtb.rdMisses                             0                       # TLB misses on read requests
system.cpu.dtb.wrAccesses                           7                       # TLB accesses on write requests
system.cpu.dtb.wrMisses                             1                       # TLB misses on write requests
system.cpu.idle_fraction                            0                       # Percentage of idle cycles
system.cpu.itb.rdAccesses                           0                       # TLB accesses on read requests
system.cpu.itb.rdMisses                             0                       # TLB misses on read requests
system.cpu.itb.wrAccesses                          10                       # TLB accesses on write requests
system.cpu.itb.wrMisses                             0                       # TLB misses on write requests
system.cpu.not_idle_fraction                        1                       # Percentage of non-idle cycles
system.cpu.numCycles                               21                       # number of cpu cycles simulated
system.cpu.numWorkItemsCompleted                    0                       # number of work items this cpu completed
system.cpu.numWorkItemsStarted                      0                       # number of work items this cpu started
system.cpu.num_busy_cycles                         21                       # Number of busy cycles
system.cpu.num_cc_register_writes                   2                       # number of times the CC registers were written
system.cpu.num_conditional_control_insts            0                       # number of instructions that are conditional controls
system.cpu.num_fp_alu_accesses                      0                       # Number of float alu accesses
system.cpu.num_fp_insts                             0                       # number of float instructions
system.cpu.num_fp_register_reads                    0                       # number of times the floating registers were read
system.cpu.num_fp_register_writes                   0                       # number of times the floating registers were written
system.cpu.num_func_calls                           1                       # number of times a function call or return occured
system.cpu.num_idle_cycles                          0                       # Number of idle cycles
system.cpu.num_int_alu_accesses                    21                       # Number of integer alu accesses
system.cpu.num_int_insts                           21                       # number of integer instructions
system.cpu.num_int_register_reads                  47                       # number of times the integer registers were read
system.cpu.num_int_register_writes                 13                       # number of times the integer registers were written
system.cpu.num_load_insts                           0                       # Number of load instructions
system.cpu.num_mem_refs                             7                       # number of memory refs
system.cpu.num_store_insts                          7                       # Number of store instructions
system.cpu.num_vec_alu_accesses                     0                       # Number of vector alu accesses
system.cpu.num_vec_insts                            0                       # number of vector instructions
system.cpu.num_vec_register_reads                   0                       # number of times the vector registers were read
system.cpu.num_vec_register_writes                  0                       # number of times the vector registers were written
system.cpu.op_class::No_OpClass                     0      0.00%      0.00% # Class of executed instruction
system.cpu.op_class::IntAlu                        14     66.67%     66.67% # Class of executed instruction
system.cpu.op_class::IntMult                        0      0.00%     66.67% # Class of executed instruction
system.cpu.op_class::IntDiv                         0      0.00%     66.67% # Class of executed instruction
system.cpu.op_class::FloatAdd                       0      0.00%     66.67% # Class of executed instruction
system.cpu.op_class::FloatCmp                       0      0.00%     66.67% # Class of executed instruction
system.cpu.op_class::FloatCvt                       0      0.00%     66.67% # Class of executed instruction
system.cpu.op_class::FloatMult                      0      0.00%     66.67% # Class of executed instruction
system.cpu.op_class::FloatMultAcc                   0      0.00%     66.67% # Class of executed instruction
system.cpu.op_class::FloatDiv                       0      0.00%     66.67% # Class of executed instruction
system.cpu.op_class::FloatMisc                      0      0.00%     66.67% # Class of executed instruction
system.cpu.op_class::FloatSqrt                      0      0.00%     66.67% # Class of executed instruction
system.cpu.op_class::SimdAdd                        0      0.00%     66.67% # Class of executed instruction
system.cpu.op_class::SimdAddAcc                     0      0.00%     66.67% # Class of executed instruction
system.cpu.op_class::SimdAlu                        0      0.00%     66.67% # Class of executed instruction
system.cpu.op_class::SimdCmp                        0      0.00%     66.67% # Class of executed instruction
system.cpu.op_class::SimdCvt                        0      0.00%     66.67% # Class of executed instruction
system.cpu.op_class::SimdMisc                       0      0.00%     66.67% # Class of executed instruction
system.cpu.op_class::SimdMult                       0      0.00%     66.67% # Class of executed instruction
system.cpu.op_class::SimdMultAcc                    0      0.00%     66.67% # Class of executed instruction
system.cpu.op_class::SimdShift                      0      0.00%     66.67% # Class of executed instruction
system.cpu.op_class::SimdShiftAcc                   0      0.00%     66.67% # Class of executed instruction
system.cpu.op_class::SimdDiv                        0      0.00%     66.67% # Class of executed instruction
system.cpu.op_class::SimdSqrt                       0      0.00%     66.67% # Class of executed instruction
system.cpu.op_class::SimdFloatAdd                   0      0.00%     66.67% # Class of executed instruction
system.cpu.op_class::SimdFloatAlu                   0      0.00%     66.67% # Class of executed instruction
system.cpu.op_class::SimdFloatCmp                   0      0.00%     66.67% # Class of executed instruction
system.cpu.op_class::SimdFloatCvt                   0      0.00%     66.67% # Class of executed instruction
system.cpu.op_class::SimdFloatDiv                   0      0.00%     66.67% # Class of executed instruction
system.cpu.op_class::SimdFloatMisc                  0      0.00%     66.67% # Class of executed instruction
system.cpu.op_class::SimdFloatMult                  0      0.00%     66.67% # Class of executed instruction
system.cpu.op_class::SimdFloatMultAcc               0      0.00%     66.67% # Class of executed instruction
system.cpu.op_class::SimdFloatSqrt                  0      0.00%     66.67% # Class of executed instruction
system.cpu.op_class::SimdReduceAdd                  0      0.00%     66.67% # Class of executed instruction
system.cpu.op_class::SimdReduceAlu                  0      0.00%     66.67% # Class of executed instruction
system.cpu.op_class::SimdReduceCmp                  0      0.00%     66.67% # Class of executed instruction
system.cpu.op_class::SimdFloatReduceAdd             0      0.00%     66.67% # Class of executed instruction
system.cpu.op_class::SimdFloatReduceCmp             0      0.00%     66.67% # Class of executed instruction
system.cpu.op_class::SimdAes                        0      0.00%     66.67% # Class of executed instruction
system.cpu.op_class::SimdAesMix                     0      0.00%     66.67% # Class of executed instruction
system.cpu.op_class::SimdSha1Hash                   0      0.00%     66.67% # Class of executed instruction
system.cpu.op_class::SimdSha1Hash2                  0      0.00%     66.67% # Class of executed instruction
system.cpu.op_class::SimdSha256Hash                 0      0.00%     66.67% # Class of executed instruction
system.cpu.op_class::SimdSha256Hash2                0      0.00%     66.67% # Class of executed instruction
system.cpu.op_class::SimdShaSigma2                  0      0.00%     66.67% # Class of executed instruction
system.cpu.op_class::SimdShaSigma3                  0      0.00%     66.67% # Class of executed instruction
system.cpu.op_class::SimdPredAlu                    0      0.00%     66.67% # Class of executed instruction
system.cpu.op_class::MemRead                        0      0.00%     66.67% # Class of executed instruction
system.cpu.op_class::MemWrite                       7     33.33%    100.00% # Class of executed instruction
system.cpu.op_class::FloatMemRead                   0      0.00%    100.00% # Class of executed instruction
system.cpu.op_class::FloatMemWrite                  0      0.00%    100.00% # Class of executed instruction
system.cpu.op_class::IprAccess                      0      0.00%    100.00% # Class of executed instruction
system.cpu.op_class::InstPrefetch                   0      0.00%    100.00% # Class of executed instruction
system.cpu.op_class::total                         21                       # Class of executed instruction
system.cpu.workload.numSyscalls                    54                       # Number of system calls
system.membus.snoop_filter.hit_multi_requests            0                       # Number of requests hitting in the snoop filter with multiple (>1) holders of the requested data.
system.membus.snoop_filter.hit_multi_snoops            0                       # Number of snoops hitting in the snoop filter with multiple (>1) holders of the requested data.
system.membus.snoop_filter.hit_single_requests        85591                       # Number of requests hitting in the snoop filter with a single holder of the requested data.
system.membus.snoop_filter.hit_single_snoops            0                       # Number of snoops hitting in the snoop filter with a single holder of the requested data.
system.membus.snoop_filter.tot_requests        171475                       # Total number of requests made to the snoop filter.
system.membus.snoop_filter.tot_snoops               0                       # Total number of snoops made to the snoop filter.
system.switch_cpus.branchPred.BTBCorrect            0                       # Number of correct BTB predictions (this stat may not work properly.
system.switch_cpus.branchPred.BTBHitPct           nan                       # BTB Hit Percentage
system.switch_cpus.branchPred.BTBHits               0                       # Number of BTB hits
system.switch_cpus.branchPred.BTBLookups            0                       # Number of BTB lookups
system.switch_cpus.branchPred.RASInCorrect           21                       # Number of incorrect RAS predictions.
system.switch_cpus.branchPred.condIncorrect        64649                       # Number of conditional branches incorrect
system.switch_cpus.branchPred.condPredicted      2313075                       # Number of conditional branches predicted
system.switch_cpus.branchPred.indirectHits       815229                       # Number of indirect target hits.
system.switch_cpus.branchPred.indirectLookups       907410                       # Number of indirect predictor lookups.
system.switch_cpus.branchPred.indirectMisses        92181                       # Number of indirect misses.
system.switch_cpus.branchPred.lookups         2536935                       # Number of BP lookups
system.switch_cpus.branchPred.usedRAS          115846                       # Number of times the RAS was used to get a target.
system.switch_cpus.branchPredindirectMispredicted        49087                       # Number of mispredicted indirect branches.
system.switch_cpus.cc_regfile_reads          12366665                       # number of cc regfile reads
system.switch_cpus.cc_regfile_writes          6309870                       # number of cc regfile writes
system.switch_cpus.commit.amos                      0                       # Number of atomic instructions committed
system.switch_cpus.commit.branchMispredicts        65455                       # The number of times a branch was mispredicted
system.switch_cpus.commit.branches            2332991                       # Number of branches committed
system.switch_cpus.commit.bw_lim_events        766899                       # number cycles where commit BW limit reached
system.switch_cpus.commit.commitNonSpecStalls          126                       # The number of times commit has been forced to stall to communicate backwards
system.switch_cpus.commit.commitSquashedInsts      1389436                       # The number of squashed insts skipped by commit
system.switch_cpus.commit.committedInsts     10000001                       # Number of instructions committed
system.switch_cpus.commit.committedOps       19145795                       # Number of ops (including micro ops) committed
system.switch_cpus.commit.committed_per_cycle::samples     21666487                       # Number of insts commited each cycle
system.switch_cpus.commit.committed_per_cycle::mean     0.883659                       # Number of insts commited each cycle
system.switch_cpus.commit.committed_per_cycle::stdev     1.909812                       # Number of insts commited each cycle
system.switch_cpus.commit.committed_per_cycle::underflows            0      0.00%      0.00% # Number of insts commited each cycle
system.switch_cpus.commit.committed_per_cycle::0     15986939     73.79%     73.79% # Number of insts commited each cycle
system.switch_cpus.commit.committed_per_cycle::1      1551168      7.16%     80.95% # Number of insts commited each cycle
system.switch_cpus.commit.committed_per_cycle::2      1022053      4.72%     85.66% # Number of insts commited each cycle
system.switch_cpus.commit.committed_per_cycle::3      1111187      5.13%     90.79% # Number of insts commited each cycle
system.switch_cpus.commit.committed_per_cycle::4       496234      2.29%     93.08% # Number of insts commited each cycle
system.switch_cpus.commit.committed_per_cycle::5       384224      1.77%     94.86% # Number of insts commited each cycle
system.switch_cpus.commit.committed_per_cycle::6       258769      1.19%     96.05% # Number of insts commited each cycle
system.switch_cpus.commit.committed_per_cycle::7        89014      0.41%     96.46% # Number of insts commited each cycle
system.switch_cpus.commit.committed_per_cycle::8       766899      3.54%    100.00% # Number of insts commited each cycle
system.switch_cpus.commit.committed_per_cycle::overflows            0      0.00%    100.00% # Number of insts commited each cycle
system.switch_cpus.commit.committed_per_cycle::min_value            0                       # Number of insts commited each cycle
system.switch_cpus.commit.committed_per_cycle::max_value            8                       # Number of insts commited each cycle
system.switch_cpus.commit.committed_per_cycle::total     21666487                       # Number of insts commited each cycle
system.switch_cpus.commit.fp_insts             172349                       # Number of committed floating point instructions.
system.switch_cpus.commit.function_calls       100339                       # Number of function calls committed.
system.switch_cpus.commit.int_insts          18957187                       # Number of committed integer instructions.
system.switch_cpus.commit.loads               1965775                       # Number of loads committed
system.switch_cpus.commit.membars                   0                       # Number of memory barriers committed
system.switch_cpus.commit.op_class_0::No_OpClass        54154      0.28%      0.28% # Class of committed instruction
system.switch_cpus.commit.op_class_0::IntAlu     15461247     80.76%     81.04% # Class of committed instruction
system.switch_cpus.commit.op_class_0::IntMult        55088      0.29%     81.33% # Class of committed instruction
system.switch_cpus.commit.op_class_0::IntDiv         1751      0.01%     81.34% # Class of committed instruction
system.switch_cpus.commit.op_class_0::FloatAdd        11085      0.06%     81.39% # Class of committed instruction
system.switch_cpus.commit.op_class_0::FloatCmp            0      0.00%     81.39% # Class of committed instruction
system.switch_cpus.commit.op_class_0::FloatCvt          128      0.00%     81.39% # Class of committed instruction
system.switch_cpus.commit.op_class_0::FloatMult            0      0.00%     81.39% # Class of committed instruction
system.switch_cpus.commit.op_class_0::FloatMultAcc            0      0.00%     81.39% # Class of committed instruction
system.switch_cpus.commit.op_class_0::FloatDiv            0      0.00%     81.39% # Class of committed instruction
system.switch_cpus.commit.op_class_0::FloatMisc            0      0.00%     81.39% # Class of committed instruction
system.switch_cpus.commit.op_class_0::FloatSqrt            0      0.00%     81.39% # Class of committed instruction
system.switch_cpus.commit.op_class_0::SimdAdd            0      0.00%     81.39% # Class of committed instruction
system.switch_cpus.commit.op_class_0::SimdAddAcc            0      0.00%     81.39% # Class of committed instruction
system.switch_cpus.commit.op_class_0::SimdAlu           42      0.00%     81.39% # Class of committed instruction
system.switch_cpus.commit.op_class_0::SimdCmp            0      0.00%     81.39% # Class of committed instruction
system.switch_cpus.commit.op_class_0::SimdCvt        24138      0.13%     81.52% # Class of committed instruction
system.switch_cpus.commit.op_class_0::SimdMisc       101285      0.53%     82.05% # Class of committed instruction
system.switch_cpus.commit.op_class_0::SimdMult            0      0.00%     82.05% # Class of committed instruction
system.switch_cpus.commit.op_class_0::SimdMultAcc            0      0.00%     82.05% # Class of committed instruction
system.switch_cpus.commit.op_class_0::SimdShift            0      0.00%     82.05% # Class of committed instruction
system.switch_cpus.commit.op_class_0::SimdShiftAcc            0      0.00%     82.05% # Class of committed instruction
system.switch_cpus.commit.op_class_0::SimdDiv            0      0.00%     82.05% # Class of committed instruction
system.switch_cpus.commit.op_class_0::SimdSqrt            0      0.00%     82.05% # Class of committed instruction
system.switch_cpus.commit.op_class_0::SimdFloatAdd            0      0.00%     82.05% # Class of committed instruction
system.switch_cpus.commit.op_class_0::SimdFloatAlu            0      0.00%     82.05% # Class of committed instruction
system.switch_cpus.commit.op_class_0::SimdFloatCmp            0      0.00%     82.05% # Class of committed instruction
system.switch_cpus.commit.op_class_0::SimdFloatCvt            0      0.00%     82.05% # Class of committed instruction
system.switch_cpus.commit.op_class_0::SimdFloatDiv            0      0.00%     82.05% # Class of committed instruction
system.switch_cpus.commit.op_class_0::SimdFloatMisc            0      0.00%     82.05% # Class of committed instruction
system.switch_cpus.commit.op_class_0::SimdFloatMult            0      0.00%     82.05% # Class of committed instruction
system.switch_cpus.commit.op_class_0::SimdFloatMultAcc            0      0.00%     82.05% # Class of committed instruction
system.switch_cpus.commit.op_class_0::SimdFloatSqrt            0      0.00%     82.05% # Class of committed instruction
system.switch_cpus.commit.op_class_0::SimdReduceAdd            0      0.00%     82.05% # Class of committed instruction
system.switch_cpus.commit.op_class_0::SimdReduceAlu            0      0.00%     82.05% # Class of committed instruction
system.switch_cpus.commit.op_class_0::SimdReduceCmp            0      0.00%     82.05% # Class of committed instruction
system.switch_cpus.commit.op_class_0::SimdFloatReduceAdd            0      0.00%     82.05% # Class of committed instruction
system.switch_cpus.commit.op_class_0::SimdFloatReduceCmp            0      0.00%     82.05% # Class of committed instruction
system.switch_cpus.commit.op_class_0::SimdAes            0      0.00%     82.05% # Class of committed instruction
system.switch_cpus.commit.op_class_0::SimdAesMix            0      0.00%     82.05% # Class of committed instruction
system.switch_cpus.commit.op_class_0::SimdSha1Hash            0      0.00%     82.05% # Class of committed instruction
system.switch_cpus.commit.op_class_0::SimdSha1Hash2            0      0.00%     82.05% # Class of committed instruction
system.switch_cpus.commit.op_class_0::SimdSha256Hash            0      0.00%     82.05% # Class of committed instruction
system.switch_cpus.commit.op_class_0::SimdSha256Hash2            0      0.00%     82.05% # Class of committed instruction
system.switch_cpus.commit.op_class_0::SimdShaSigma2            0      0.00%     82.05% # Class of committed instruction
system.switch_cpus.commit.op_class_0::SimdShaSigma3            0      0.00%     82.05% # Class of committed instruction
system.switch_cpus.commit.op_class_0::SimdPredAlu            0      0.00%     82.05% # Class of committed instruction
system.switch_cpus.commit.op_class_0::MemRead      1941393     10.14%     92.19% # Class of committed instruction
system.switch_cpus.commit.op_class_0::MemWrite      1470846      7.68%     99.87% # Class of committed instruction
system.switch_cpus.commit.op_class_0::FloatMemRead        24382      0.13%    100.00% # Class of committed instruction
system.switch_cpus.commit.op_class_0::FloatMemWrite          256      0.00%    100.00% # Class of committed instruction
system.switch_cpus.commit.op_class_0::IprAccess            0      0.00%    100.00% # Class of committed instruction
system.switch_cpus.commit.op_class_0::InstPrefetch            0      0.00%    100.00% # Class of committed instruction
system.switch_cpus.commit.op_class_0::total     19145795                       # Class of committed instruction
system.switch_cpus.commit.refs                3436877                       # Number of memory references committed
system.switch_cpus.commit.swp_count                 0                       # Number of s/w prefetches committed
system.switch_cpus.commit.vec_insts                 0                       # Number of committed Vector instructions.
system.switch_cpus.committedInsts            10000001                       # Number of Instructions Simulated
system.switch_cpus.committedOps              19145795                       # Number of Ops (including micro ops) Simulated
system.switch_cpus.cpi                       2.688603                       # CPI: Cycles Per Instruction
system.switch_cpus.cpi_total                 2.688603                       # CPI: Total CPI of All Threads
system.switch_cpus.decode.BlockedCycles       2845138                       # Number of cycles decode is blocked
system.switch_cpus.decode.DecodedInsts       20950360                       # Number of instructions handled by decode
system.switch_cpus.decode.IdleCycles         15588942                       # Number of cycles decode is idle
system.switch_cpus.decode.RunCycles           3341151                       # Number of cycles decode is running
system.switch_cpus.decode.SquashCycles          66276                       # Number of cycles decode is squashing
system.switch_cpus.decode.UnblockCycles         61782                       # Number of cycles decode is unblocking
system.switch_cpus.dtb.rdAccesses             2076008                       # TLB accesses on read requests
system.switch_cpus.dtb.rdMisses                  1943                       # TLB misses on read requests
system.switch_cpus.dtb.wrAccesses             1510275                       # TLB accesses on write requests
system.switch_cpus.dtb.wrMisses                  3224                       # TLB misses on write requests
system.switch_cpus.fetch.Branches             2536935                       # Number of branches that fetch encountered
system.switch_cpus.fetch.CacheLines           1640107                       # Number of cache lines fetched
system.switch_cpus.fetch.Cycles               5363207                       # Number of cycles fetch has run and was not squashing or blocked
system.switch_cpus.fetch.IcacheSquashes         51605                       # Number of outstanding Icache misses that were squashed
system.switch_cpus.fetch.IcacheWaitRetryStallCycles           83                       # Number of stall cycles due to full MSHR
system.switch_cpus.fetch.Insts               11008097                       # Number of instructions fetch has processed
system.switch_cpus.fetch.MiscStallCycles          847                       # Number of cycles fetch has spent waiting on interrupts, or bad addresses, or out of MSHRs
system.switch_cpus.fetch.PendingQuiesceStallCycles            7                       # Number of stall cycles due to pending quiesce instructions
system.switch_cpus.fetch.PendingTrapStallCycles         5368                       # Number of stall cycles due to pending traps
system.switch_cpus.fetch.SquashCycles          132552                       # Number of cycles fetch has spent squashing
system.switch_cpus.fetch.branchRate          0.094359                       # Number of branch fetches per cycle
system.switch_cpus.fetch.icacheStallCycles     16467503                       # Number of cycles fetch is stalled on an Icache miss
system.switch_cpus.fetch.predictedBranches       931075                       # Number of branches that fetch has predicted taken
system.switch_cpus.fetch.rate                0.409436                       # Number of inst fetches per cycle
system.switch_cpus.fetch.rateDist::samples     21903291                       # Number of instructions fetched each cycle (Total)
system.switch_cpus.fetch.rateDist::mean      0.963997                       # Number of instructions fetched each cycle (Total)
system.switch_cpus.fetch.rateDist::stdev     2.441939                       # Number of instructions fetched each cycle (Total)
system.switch_cpus.fetch.rateDist::underflows            0      0.00%      0.00% # Number of instructions fetched each cycle (Total)
system.switch_cpus.fetch.rateDist::0         18419690     84.10%     84.10% # Number of instructions fetched each cycle (Total)
system.switch_cpus.fetch.rateDist::1           303779      1.39%     85.48% # Number of instructions fetched each cycle (Total)
system.switch_cpus.fetch.rateDist::2           292781      1.34%     86.82% # Number of instructions fetched each cycle (Total)
system.switch_cpus.fetch.rateDist::3           200711      0.92%     87.74% # Number of instructions fetched each cycle (Total)
system.switch_cpus.fetch.rateDist::4           152490      0.70%     88.43% # Number of instructions fetched each cycle (Total)
system.switch_cpus.fetch.rateDist::5           260675      1.19%     89.62% # Number of instructions fetched each cycle (Total)
system.switch_cpus.fetch.rateDist::6           188003      0.86%     90.48% # Number of instructions fetched each cycle (Total)
system.switch_cpus.fetch.rateDist::7            99417      0.45%     90.93% # Number of instructions fetched each cycle (Total)
system.switch_cpus.fetch.rateDist::8          1985745      9.07%    100.00% # Number of instructions fetched each cycle (Total)
system.switch_cpus.fetch.rateDist::overflows            0      0.00%    100.00% # Number of instructions fetched each cycle (Total)
system.switch_cpus.fetch.rateDist::min_value            0                       # Number of instructions fetched each cycle (Total)
system.switch_cpus.fetch.rateDist::max_value            8                       # Number of instructions fetched each cycle (Total)
system.switch_cpus.fetch.rateDist::total     21903291                       # Number of instructions fetched each cycle (Total)
system.switch_cpus.fp_regfile_reads            278748                       # number of floating regfile reads
system.switch_cpus.fp_regfile_writes           156367                       # number of floating regfile writes
system.switch_cpus.idleCycles                 4982742                       # Total number of cycles that the CPU has spent unscheduled due to idling
system.switch_cpus.iew.branchMispredicts        86806                       # Number of branch mispredicts detected at execute
system.switch_cpus.iew.exec_branches          2395302                       # Number of branches executed
system.switch_cpus.iew.exec_nop                     0                       # number of nop insts executed
system.switch_cpus.iew.exec_rate             0.743918                       # Inst execution rate
system.switch_cpus.iew.exec_refs              3607266                       # number of memory reference insts executed
system.switch_cpus.iew.exec_stores            1510271                       # Number of stores executed
system.switch_cpus.iew.exec_swp                     0                       # number of swp insts executed
system.switch_cpus.iew.iewBlockCycles          396034                       # Number of cycles IEW is blocking
system.switch_cpus.iew.iewDispLoadInsts       2175197                       # Number of dispatched load instructions
system.switch_cpus.iew.iewDispNonSpecInsts          857                       # Number of dispatched non-speculative instructions
system.switch_cpus.iew.iewDispSquashedInsts         7909                       # Number of squashed instructions skipped by dispatch
system.switch_cpus.iew.iewDispStoreInsts      1546422                       # Number of dispatched store instructions
system.switch_cpus.iew.iewDispatchedInsts     20541431                       # Number of instructions dispatched to IQ
system.switch_cpus.iew.iewExecLoadInsts       2096995                       # Number of load instructions executed
system.switch_cpus.iew.iewExecSquashedInsts        74720                       # Number of squashed instructions skipped in execute
system.switch_cpus.iew.iewExecutedInsts      20001011                       # Number of executed instructions
system.switch_cpus.iew.iewIQFullEvents           3762                       # Number of times the IQ has become full, causing a stall
system.switch_cpus.iew.iewIdleCycles                0                       # Number of cycles IEW is idle
system.switch_cpus.iew.iewLSQFullEvents        942660                       # Number of times the LSQ has become full, causing a stall
system.switch_cpus.iew.iewSquashCycles          66276                       # Number of cycles IEW is squashing
system.switch_cpus.iew.iewUnblockCycles        948058                       # Number of cycles IEW is unblocking
system.switch_cpus.iew.lsq.thread0.blockedLoads            0                       # Number of blocked loads due to partial load-store forwarding
system.switch_cpus.iew.lsq.thread0.cacheBlocked         9709                       # Number of times an access to memory failed due to the cache being blocked
system.switch_cpus.iew.lsq.thread0.forwLoads       150895                       # Number of loads that had data forwarded from stores
system.switch_cpus.iew.lsq.thread0.ignoredResponses           96                       # Number of memory responses ignored because the instruction is squashed
system.switch_cpus.iew.lsq.thread0.invAddrLoads            0                       # Number of loads ignored due to an invalid address
system.switch_cpus.iew.lsq.thread0.invAddrSwpfs            0                       # Number of software prefetches ignored due to an invalid address
system.switch_cpus.iew.lsq.thread0.memOrderViolation          191                       # Number of memory ordering violations
system.switch_cpus.iew.lsq.thread0.rescheduledLoads            6                       # Number of loads that were rescheduled
system.switch_cpus.iew.lsq.thread0.squashedLoads       209421                       # Number of loads squashed
system.switch_cpus.iew.lsq.thread0.squashedStores        75320                       # Number of stores squashed
system.switch_cpus.iew.memOrderViolationEvents          191                       # Number of memory order violations
system.switch_cpus.iew.predictedNotTakenIncorrect        84586                       # Number of branches that were predicted not taken incorrectly
system.switch_cpus.iew.predictedTakenIncorrect         2220                       # Number of branches that were predicted taken incorrectly
system.switch_cpus.iew.wb_consumers          21059970                       # num instructions consuming a value
system.switch_cpus.iew.wb_count              19923220                       # cumulative count of insts written-back
system.switch_cpus.iew.wb_fanout             0.658205                       # average fanout of values written-back
system.switch_cpus.iew.wb_producers          13861769                       # num instructions producing a value
system.switch_cpus.iew.wb_rate               0.741025                       # insts written-back per cycle
system.switch_cpus.iew.wb_sent               19940879                       # cumulative count of insts sent to commit
system.switch_cpus.int_regfile_reads         29505265                       # number of integer regfile reads
system.switch_cpus.int_regfile_writes        15841608                       # number of integer regfile writes
system.switch_cpus.ipc                       0.371940                       # IPC: Instructions Per Cycle
system.switch_cpus.ipc_total                 0.371940                       # IPC: Total IPC of All Threads
system.switch_cpus.iq.FU_type_0::No_OpClass        87828      0.44%      0.44% # Type of FU issued
system.switch_cpus.iq.FU_type_0::IntAlu      16155533     80.47%     80.91% # Type of FU issued
system.switch_cpus.iq.FU_type_0::IntMult        55147      0.27%     81.19% # Type of FU issued
system.switch_cpus.iq.FU_type_0::IntDiv          1873      0.01%     81.19% # Type of FU issued
system.switch_cpus.iq.FU_type_0::FloatAdd        11176      0.06%     81.25% # Type of FU issued
system.switch_cpus.iq.FU_type_0::FloatCmp            0      0.00%     81.25% # Type of FU issued
system.switch_cpus.iq.FU_type_0::FloatCvt          128      0.00%     81.25% # Type of FU issued
system.switch_cpus.iq.FU_type_0::FloatMult            0      0.00%     81.25% # Type of FU issued
system.switch_cpus.iq.FU_type_0::FloatMultAcc            0      0.00%     81.25% # Type of FU issued
system.switch_cpus.iq.FU_type_0::FloatDiv            0      0.00%     81.25% # Type of FU issued
system.switch_cpus.iq.FU_type_0::FloatMisc            0      0.00%     81.25% # Type of FU issued
system.switch_cpus.iq.FU_type_0::FloatSqrt            0      0.00%     81.25% # Type of FU issued
system.switch_cpus.iq.FU_type_0::SimdAdd            0      0.00%     81.25% # Type of FU issued
system.switch_cpus.iq.FU_type_0::SimdAddAcc            0      0.00%     81.25% # Type of FU issued
system.switch_cpus.iq.FU_type_0::SimdAlu           55      0.00%     81.25% # Type of FU issued
system.switch_cpus.iq.FU_type_0::SimdCmp            0      0.00%     81.25% # Type of FU issued
system.switch_cpus.iq.FU_type_0::SimdCvt        27960      0.14%     81.39% # Type of FU issued
system.switch_cpus.iq.FU_type_0::SimdMisc       105555      0.53%     81.92% # Type of FU issued
system.switch_cpus.iq.FU_type_0::SimdMult            0      0.00%     81.92% # Type of FU issued
system.switch_cpus.iq.FU_type_0::SimdMultAcc            0      0.00%     81.92% # Type of FU issued
system.switch_cpus.iq.FU_type_0::SimdShift            0      0.00%     81.92% # Type of FU issued
system.switch_cpus.iq.FU_type_0::SimdShiftAcc            0      0.00%     81.92% # Type of FU issued
system.switch_cpus.iq.FU_type_0::SimdDiv            0      0.00%     81.92% # Type of FU issued
system.switch_cpus.iq.FU_type_0::SimdSqrt            0      0.00%     81.92% # Type of FU issued
system.switch_cpus.iq.FU_type_0::SimdFloatAdd            0      0.00%     81.92% # Type of FU issued
system.switch_cpus.iq.FU_type_0::SimdFloatAlu            0      0.00%     81.92% # Type of FU issued
system.switch_cpus.iq.FU_type_0::SimdFloatCmp            0      0.00%     81.92% # Type of FU issued
system.switch_cpus.iq.FU_type_0::SimdFloatCvt            0      0.00%     81.92% # Type of FU issued
system.switch_cpus.iq.FU_type_0::SimdFloatDiv            0      0.00%     81.92% # Type of FU issued
system.switch_cpus.iq.FU_type_0::SimdFloatMisc            0      0.00%     81.92% # Type of FU issued
system.switch_cpus.iq.FU_type_0::SimdFloatMult            0      0.00%     81.92% # Type of FU issued
system.switch_cpus.iq.FU_type_0::SimdFloatMultAcc            0      0.00%     81.92% # Type of FU issued
system.switch_cpus.iq.FU_type_0::SimdFloatSqrt            0      0.00%     81.92% # Type of FU issued
system.switch_cpus.iq.FU_type_0::SimdReduceAdd            0      0.00%     81.92% # Type of FU issued
system.switch_cpus.iq.FU_type_0::SimdReduceAlu            0      0.00%     81.92% # Type of FU issued
system.switch_cpus.iq.FU_type_0::SimdReduceCmp            0      0.00%     81.92% # Type of FU issued
system.switch_cpus.iq.FU_type_0::SimdFloatReduceAdd            0      0.00%     81.92% # Type of FU issued
system.switch_cpus.iq.FU_type_0::SimdFloatReduceCmp            0      0.00%     81.92% # Type of FU issued
system.switch_cpus.iq.FU_type_0::SimdAes            0      0.00%     81.92% # Type of FU issued
system.switch_cpus.iq.FU_type_0::SimdAesMix            0      0.00%     81.92% # Type of FU issued
system.switch_cpus.iq.FU_type_0::SimdSha1Hash            0      0.00%     81.92% # Type of FU issued
system.switch_cpus.iq.FU_type_0::SimdSha1Hash2            0      0.00%     81.92% # Type of FU issued
system.switch_cpus.iq.FU_type_0::SimdSha256Hash            0      0.00%     81.92% # Type of FU issued
system.switch_cpus.iq.FU_type_0::SimdSha256Hash2            0      0.00%     81.92% # Type of FU issued
system.switch_cpus.iq.FU_type_0::SimdShaSigma2            0      0.00%     81.92% # Type of FU issued
system.switch_cpus.iq.FU_type_0::SimdShaSigma3            0      0.00%     81.92% # Type of FU issued
system.switch_cpus.iq.FU_type_0::SimdPredAlu            0      0.00%     81.92% # Type of FU issued
system.switch_cpus.iq.FU_type_0::MemRead      2079361     10.36%     92.27% # Type of FU issued
system.switch_cpus.iq.FU_type_0::MemWrite      1518159      7.56%     99.84% # Type of FU issued
system.switch_cpus.iq.FU_type_0::FloatMemRead        32452      0.16%    100.00% # Type of FU issued
system.switch_cpus.iq.FU_type_0::FloatMemWrite          505      0.00%    100.00% # Type of FU issued
system.switch_cpus.iq.FU_type_0::IprAccess            0      0.00%    100.00% # Type of FU issued
system.switch_cpus.iq.FU_type_0::InstPrefetch            0      0.00%    100.00% # Type of FU issued
system.switch_cpus.iq.FU_type_0::total       20075732                       # Type of FU issued
system.switch_cpus.iq.fp_alu_accesses          190026                       # Number of floating point alu accesses
system.switch_cpus.iq.fp_inst_queue_reads       378981                       # Number of floating instruction queue reads
system.switch_cpus.iq.fp_inst_queue_wakeup_accesses       184509                       # Number of floating instruction queue wakeup accesses
system.switch_cpus.iq.fp_inst_queue_writes       222545                       # Number of floating instruction queue writes
system.switch_cpus.iq.fu_busy_cnt              314900                       # FU busy when requested
system.switch_cpus.iq.fu_busy_rate           0.015686                       # FU busy rate (busy events/executed inst)
system.switch_cpus.iq.fu_full::No_OpClass            0      0.00%      0.00% # attempts to use FU when none available
system.switch_cpus.iq.fu_full::IntAlu          291672     92.62%     92.62% # attempts to use FU when none available
system.switch_cpus.iq.fu_full::IntMult              0      0.00%     92.62% # attempts to use FU when none available
system.switch_cpus.iq.fu_full::IntDiv               0      0.00%     92.62% # attempts to use FU when none available
system.switch_cpus.iq.fu_full::FloatAdd             0      0.00%     92.62% # attempts to use FU when none available
system.switch_cpus.iq.fu_full::FloatCmp             0      0.00%     92.62% # attempts to use FU when none available
system.switch_cpus.iq.fu_full::FloatCvt             0      0.00%     92.62% # attempts to use FU when none available
system.switch_cpus.iq.fu_full::FloatMult            0      0.00%     92.62% # attempts to use FU when none available
system.switch_cpus.iq.fu_full::FloatMultAcc            0      0.00%     92.62% # attempts to use FU when none available
system.switch_cpus.iq.fu_full::FloatDiv             0      0.00%     92.62% # attempts to use FU when none available
system.switch_cpus.iq.fu_full::FloatMisc            0      0.00%     92.62% # attempts to use FU when none available
system.switch_cpus.iq.fu_full::FloatSqrt            0      0.00%     92.62% # attempts to use FU when none available
system.switch_cpus.iq.fu_full::SimdAdd              0      0.00%     92.62% # attempts to use FU when none available
system.switch_cpus.iq.fu_full::SimdAddAcc            0      0.00%     92.62% # attempts to use FU when none available
system.switch_cpus.iq.fu_full::SimdAlu              6      0.00%     92.63% # attempts to use FU when none available
system.switch_cpus.iq.fu_full::SimdCmp              0      0.00%     92.63% # attempts to use FU when none available
system.switch_cpus.iq.fu_full::SimdCvt            970      0.31%     92.93% # attempts to use FU when none available
system.switch_cpus.iq.fu_full::SimdMisc             1      0.00%     92.93% # attempts to use FU when none available
system.switch_cpus.iq.fu_full::SimdMult             0      0.00%     92.93% # attempts to use FU when none available
system.switch_cpus.iq.fu_full::SimdMultAcc            0      0.00%     92.93% # attempts to use FU when none available
system.switch_cpus.iq.fu_full::SimdShift            0      0.00%     92.93% # attempts to use FU when none available
system.switch_cpus.iq.fu_full::SimdShiftAcc            0      0.00%     92.93% # attempts to use FU when none available
system.switch_cpus.iq.fu_full::SimdDiv              0      0.00%     92.93% # attempts to use FU when none available
system.switch_cpus.iq.fu_full::SimdSqrt             0      0.00%     92.93% # attempts to use FU when none available
system.switch_cpus.iq.fu_full::SimdFloatAdd            0      0.00%     92.93% # attempts to use FU when none available
system.switch_cpus.iq.fu_full::SimdFloatAlu            0      0.00%     92.93% # attempts to use FU when none available
system.switch_cpus.iq.fu_full::SimdFloatCmp            0      0.00%     92.93% # attempts to use FU when none available
system.switch_cpus.iq.fu_full::SimdFloatCvt            0      0.00%     92.93% # attempts to use FU when none available
system.switch_cpus.iq.fu_full::SimdFloatDiv            0      0.00%     92.93% # attempts to use FU when none available
system.switch_cpus.iq.fu_full::SimdFloatMisc            0      0.00%     92.93% # attempts to use FU when none available
system.switch_cpus.iq.fu_full::SimdFloatMult            0      0.00%     92.93% # attempts to use FU when none available
system.switch_cpus.iq.fu_full::SimdFloatMultAcc            0      0.00%     92.93% # attempts to use FU when none available
system.switch_cpus.iq.fu_full::SimdFloatSqrt            0      0.00%     92.93% # attempts to use FU when none available
system.switch_cpus.iq.fu_full::SimdReduceAdd            0      0.00%     92.93% # attempts to use FU when none available
system.switch_cpus.iq.fu_full::SimdReduceAlu            0      0.00%     92.93% # attempts to use FU when none available
system.switch_cpus.iq.fu_full::SimdReduceCmp            0      0.00%     92.93% # attempts to use FU when none available
system.switch_cpus.iq.fu_full::SimdFloatReduceAdd            0      0.00%     92.93% # attempts to use FU when none available
system.switch_cpus.iq.fu_full::SimdFloatReduceCmp            0      0.00%     92.93% # attempts to use FU when none available
system.switch_cpus.iq.fu_full::SimdAes              0      0.00%     92.93% # attempts to use FU when none available
system.switch_cpus.iq.fu_full::SimdAesMix            0      0.00%     92.93% # attempts to use FU when none available
system.switch_cpus.iq.fu_full::SimdSha1Hash            0      0.00%     92.93% # attempts to use FU when none available
system.switch_cpus.iq.fu_full::SimdSha1Hash2            0      0.00%     92.93% # attempts to use FU when none available
system.switch_cpus.iq.fu_full::SimdSha256Hash            0      0.00%     92.93% # attempts to use FU when none available
system.switch_cpus.iq.fu_full::SimdSha256Hash2            0      0.00%     92.93% # attempts to use FU when none available
system.switch_cpus.iq.fu_full::SimdShaSigma2            0      0.00%     92.93% # attempts to use FU when none available
system.switch_cpus.iq.fu_full::SimdShaSigma3            0      0.00%     92.93% # attempts to use FU when none available
system.switch_cpus.iq.fu_full::SimdPredAlu            0      0.00%     92.93% # attempts to use FU when none available
system.switch_cpus.iq.fu_full::MemRead          11503      3.65%     96.59% # attempts to use FU when none available
system.switch_cpus.iq.fu_full::MemWrite         10630      3.38%     99.96% # attempts to use FU when none available
system.switch_cpus.iq.fu_full::FloatMemRead           34      0.01%     99.97% # attempts to use FU when none available
system.switch_cpus.iq.fu_full::FloatMemWrite           84      0.03%    100.00% # attempts to use FU when none available
system.switch_cpus.iq.fu_full::IprAccess            0      0.00%    100.00% # attempts to use FU when none available
system.switch_cpus.iq.fu_full::InstPrefetch            0      0.00%    100.00% # attempts to use FU when none available
system.switch_cpus.iq.int_alu_accesses       20112778                       # Number of integer alu accesses
system.switch_cpus.iq.int_inst_queue_reads     62000551                       # Number of integer instruction queue reads
system.switch_cpus.iq.int_inst_queue_wakeup_accesses     19738711                       # Number of integer instruction queue wakeup accesses
system.switch_cpus.iq.int_inst_queue_writes     21714673                       # Number of integer instruction queue writes
system.switch_cpus.iq.iqInstsAdded           20539582                       # Number of instructions added to the IQ (excludes non-spec)
system.switch_cpus.iq.iqInstsIssued          20075732                       # Number of instructions issued
system.switch_cpus.iq.iqNonSpecInstsAdded         1849                       # Number of non-speculative instructions added to the IQ
system.switch_cpus.iq.iqSquashedInstsExamined      1395620                       # Number of squashed instructions iterated over during squash; mainly for profiling
system.switch_cpus.iq.iqSquashedInstsIssued         9878                       # Number of squashed instructions issued
system.switch_cpus.iq.iqSquashedNonSpecRemoved         1723                       # Number of squashed non-spec instructions that were removed
system.switch_cpus.iq.iqSquashedOperandsExamined      1894112                       # Number of squashed operands that are examined and possibly removed from graph
system.switch_cpus.iq.issued_per_cycle::samples     21903291                       # Number of insts issued each cycle
system.switch_cpus.iq.issued_per_cycle::mean     0.916562                       # Number of insts issued each cycle
system.switch_cpus.iq.issued_per_cycle::stdev     1.777651                       # Number of insts issued each cycle
system.switch_cpus.iq.issued_per_cycle::underflows            0      0.00%      0.00% # Number of insts issued each cycle
system.switch_cpus.iq.issued_per_cycle::0     15531104     70.91%     70.91% # Number of insts issued each cycle
system.switch_cpus.iq.issued_per_cycle::1      1652686      7.55%     78.45% # Number of insts issued each cycle
system.switch_cpus.iq.issued_per_cycle::2      1373211      6.27%     84.72% # Number of insts issued each cycle
system.switch_cpus.iq.issued_per_cycle::3       906471      4.14%     88.86% # Number of insts issued each cycle
system.switch_cpus.iq.issued_per_cycle::4       826196      3.77%     92.63% # Number of insts issued each cycle
system.switch_cpus.iq.issued_per_cycle::5       597980      2.73%     95.36% # Number of insts issued each cycle
system.switch_cpus.iq.issued_per_cycle::6       540858      2.47%     97.83% # Number of insts issued each cycle
system.switch_cpus.iq.issued_per_cycle::7       380901      1.74%     99.57% # Number of insts issued each cycle
system.switch_cpus.iq.issued_per_cycle::8        93884      0.43%    100.00% # Number of insts issued each cycle
system.switch_cpus.iq.issued_per_cycle::overflows            0      0.00%    100.00% # Number of insts issued each cycle
system.switch_cpus.iq.issued_per_cycle::min_value            0                       # Number of insts issued each cycle
system.switch_cpus.iq.issued_per_cycle::max_value            8                       # Number of insts issued each cycle
system.switch_cpus.iq.issued_per_cycle::total     21903291                       # Number of insts issued each cycle
system.switch_cpus.iq.rate                   0.746697                       # Inst issue rate
system.switch_cpus.iq.vec_alu_accesses              0                       # Number of vector alu accesses
system.switch_cpus.iq.vec_inst_queue_reads            0                       # Number of vector instruction queue reads
system.switch_cpus.iq.vec_inst_queue_wakeup_accesses            0                       # Number of vector instruction queue wakeup accesses
system.switch_cpus.iq.vec_inst_queue_writes            0                       # Number of vector instruction queue writes
system.switch_cpus.itb.rdAccesses                   0                       # TLB accesses on read requests
system.switch_cpus.itb.rdMisses                     0                       # TLB misses on read requests
system.switch_cpus.itb.wrAccesses             1640965                       # TLB accesses on write requests
system.switch_cpus.itb.wrMisses                   990                       # TLB misses on write requests
system.switch_cpus.memDep0.conflictingLoads        46127                       # Number of conflicting loads.
system.switch_cpus.memDep0.conflictingStores        18559                       # Number of conflicting stores.
system.switch_cpus.memDep0.insertedLoads      2175197                       # Number of loads inserted to the mem dependence unit.
system.switch_cpus.memDep0.insertedStores      1546422                       # Number of stores inserted to the mem dependence unit.
system.switch_cpus.misc_regfile_reads         8438441                       # number of misc regfile reads
system.switch_cpus.misc_regfile_writes             73                       # number of misc regfile writes
system.switch_cpus.numCycles                 26886033                       # number of cpu cycles simulated
system.switch_cpus.numWorkItemsCompleted            0                       # number of work items this cpu completed
system.switch_cpus.numWorkItemsStarted              0                       # number of work items this cpu started
system.switch_cpus.rename.BlockCycles         1430051                       # Number of cycles rename is blocking
system.switch_cpus.rename.CommittedMaps      21462266                       # Number of HB maps that are committed
system.switch_cpus.rename.IQFullEvents          44304                       # Number of times rename has blocked due to IQ full
system.switch_cpus.rename.IdleCycles         15643555                       # Number of cycles rename is idle
system.switch_cpus.rename.LQFullEvents           7736                       # Number of times rename has blocked due to LQ full
system.switch_cpus.rename.ROBFullEvents          5829                       # Number of times rename has blocked due to ROB full
system.switch_cpus.rename.RenameLookups      52922696                       # Number of register rename lookups that rename has made
system.switch_cpus.rename.RenamedInsts       20805935                       # Number of instructions processed by rename
system.switch_cpus.rename.RenamedOperands     23287738                       # Number of destination operands rename has renamed
system.switch_cpus.rename.RunCycles           3342424                       # Number of cycles rename is running
system.switch_cpus.rename.SQFullEvents        1358441                       # Number of times rename has blocked due to SQ full
system.switch_cpus.rename.SquashCycles          66276                       # Number of cycles rename is squashing
system.switch_cpus.rename.UnblockCycles       1414851                       # Number of cycles rename is unblocking
system.switch_cpus.rename.UndoneMaps          1825443                       # Number of HB maps that are undone due to squashing
system.switch_cpus.rename.fp_rename_lookups       296273                       # Number of floating rename lookups
system.switch_cpus.rename.int_rename_lookups     30973132                       # Number of integer rename lookups
system.switch_cpus.rename.serializeStallCycles         6133                       # count of cycles rename stalled for serializing inst
system.switch_cpus.rename.serializingInsts          190                       # count of serializing insts renamed
system.switch_cpus.rename.skidInsts            443600                       # count of insts added to the skid buffer
system.switch_cpus.rename.tempSerializingInsts          155                       # count of temporary serializing insts renamed
system.switch_cpus.rob.rob_reads             41426096                       # The number of ROB reads
system.switch_cpus.rob.rob_writes            41314535                       # The number of ROB writes
system.switch_cpus.timesIdled                  354307                       # Number of times that the entire CPU went into an idle state and unscheduled itself
system.tol2bus.snoop_filter.hit_multi_requests            9                       # Number of requests hitting in the snoop filter with multiple (>1) holders of the requested data.
system.tol2bus.snoop_filter.hit_multi_snoops            1                       # Number of snoops hitting in the snoop filter with multiple (>1) holders of the requested data.
system.tol2bus.snoop_filter.hit_single_requests       803004                       # Number of requests hitting in the snoop filter with a single holder of the requested data.
system.tol2bus.snoop_filter.hit_single_snoops        38366                       # Number of snoops hitting in the snoop filter with a single holder of the requested data.
system.tol2bus.snoop_filter.tot_requests      1606139                       # Total number of requests made to the snoop filter.
system.tol2bus.snoop_filter.tot_snoops          38367                       # Total number of snoops made to the snoop filter.
system.membus.trans_dist::ReadResp              57568                       # Transaction distribution
system.membus.trans_dist::WritebackDirty        35745                       # Transaction distribution
system.membus.trans_dist::CleanEvict            49846                       # Transaction distribution
system.membus.trans_dist::ReadExReq             28316                       # Transaction distribution
system.membus.trans_dist::ReadExResp            28316                       # Transaction distribution
system.membus.trans_dist::ReadSharedReq         57568                       # Transaction distribution
system.membus.pkt_count_system.l2.mem_side::system.mem_ctrls.port       257359                       # Packet count per connected master and slave (bytes)
system.membus.pkt_count_system.l2.mem_side::total       257359                       # Packet count per connected master and slave (bytes)
system.membus.pkt_count::total                 257359                       # Packet count per connected master and slave (bytes)
system.membus.pkt_size_system.l2.mem_side::system.mem_ctrls.port      7784256                       # Cumulative packet size per connected master and slave (bytes)
system.membus.pkt_size_system.l2.mem_side::total      7784256                       # Cumulative packet size per connected master and slave (bytes)
system.membus.pkt_size::total                 7784256                       # Cumulative packet size per connected master and slave (bytes)
system.membus.snoops                                0                       # Total snoops (count)
system.membus.snoopTraffic                          0                       # Total snoop traffic (bytes)
system.membus.snoop_fanout::samples             85884                       # Request fanout histogram
system.membus.snoop_fanout::mean                    0                       # Request fanout histogram
system.membus.snoop_fanout::stdev                   0                       # Request fanout histogram
system.membus.snoop_fanout::underflows              0      0.00%      0.00% # Request fanout histogram
system.membus.snoop_fanout::0                   85884    100.00%    100.00% # Request fanout histogram
system.membus.snoop_fanout::1                       0      0.00%    100.00% # Request fanout histogram
system.membus.snoop_fanout::overflows               0      0.00%    100.00% # Request fanout histogram
system.membus.snoop_fanout::min_value               0                       # Request fanout histogram
system.membus.snoop_fanout::max_value               0                       # Request fanout histogram
system.membus.snoop_fanout::total               85884                       # Request fanout histogram
system.membus.reqLayer2.occupancy           337084000                       # Layer occupancy (ticks)
system.membus.reqLayer2.utilization               2.5                       # Layer utilization (%)
system.membus.respLayer1.occupancy          459501500                       # Layer occupancy (ticks)
system.membus.respLayer1.utilization              3.4                       # Layer utilization (%)
system.membus.power_state.pwrStateResidencyTicks::UNDEFINED  13443027000                       # Cumulative time (in ticks) in various power states
system.switch_cpus.dtb.walker.power_state.pwrStateResidencyTicks::UNDEFINED  13443027000                       # Cumulative time (in ticks) in various power states
system.switch_cpus.itb.walker.power_state.pwrStateResidencyTicks::UNDEFINED  13443027000                       # Cumulative time (in ticks) in various power states
system.switch_cpus.power_state.pwrStateResidencyTicks::OFF  13443027000                       # Cumulative time (in ticks) in various power states
system.tol2bus.trans_dist::ReadResp            751306                       # Transaction distribution
system.tol2bus.trans_dist::WritebackDirty       102782                       # Transaction distribution
system.tol2bus.trans_dist::WritebackClean       670151                       # Transaction distribution
system.tol2bus.trans_dist::CleanEvict          146501                       # Transaction distribution
system.tol2bus.trans_dist::UpgradeReq               1                       # Transaction distribution
system.tol2bus.trans_dist::UpgradeResp              1                       # Transaction distribution
system.tol2bus.trans_dist::ReadExReq            51827                       # Transaction distribution
system.tol2bus.trans_dist::ReadExResp           51827                       # Transaction distribution
system.tol2bus.trans_dist::ReadCleanReq        670217                       # Transaction distribution
system.tol2bus.trans_dist::ReadSharedReq        81090                       # Transaction distribution
system.tol2bus.pkt_count_system.cpu.icache.mem_side::system.l2.cpu_side      2010584                       # Packet count per connected master and slave (bytes)
system.tol2bus.pkt_count_system.cpu.dcache.mem_side::system.l2.cpu_side       398689                       # Packet count per connected master and slave (bytes)
system.tol2bus.pkt_count::total               2409273                       # Packet count per connected master and slave (bytes)
system.tol2bus.pkt_size_system.cpu.icache.mem_side::system.l2.cpu_side     85783488                       # Cumulative packet size per connected master and slave (bytes)
system.tol2bus.pkt_size_system.cpu.dcache.mem_side::system.l2.cpu_side     12797056                       # Cumulative packet size per connected master and slave (bytes)
system.tol2bus.pkt_size::total               98580544                       # Cumulative packet size per connected master and slave (bytes)
system.tol2bus.snoops                          116430                       # Total snoops (count)
system.tol2bus.snoopTraffic                   2287680                       # Total snoop traffic (bytes)
system.tol2bus.snoop_fanout::samples           919565                       # Request fanout histogram
system.tol2bus.snoop_fanout::mean            0.041734                       # Request fanout histogram
system.tol2bus.snoop_fanout::stdev           0.199986                       # Request fanout histogram
system.tol2bus.snoop_fanout::underflows             0      0.00%      0.00% # Request fanout histogram
system.tol2bus.snoop_fanout::0                 881189     95.83%     95.83% # Request fanout histogram
system.tol2bus.snoop_fanout::1                  38375      4.17%    100.00% # Request fanout histogram
system.tol2bus.snoop_fanout::2                      1      0.00%    100.00% # Request fanout histogram
system.tol2bus.snoop_fanout::3                      0      0.00%    100.00% # Request fanout histogram
system.tol2bus.snoop_fanout::4                      0      0.00%    100.00% # Request fanout histogram
system.tol2bus.snoop_fanout::overflows              0      0.00%    100.00% # Request fanout histogram
system.tol2bus.snoop_fanout::min_value              0                       # Request fanout histogram
system.tol2bus.snoop_fanout::max_value              2                       # Request fanout histogram
system.tol2bus.snoop_fanout::total             919565                       # Request fanout histogram
system.tol2bus.reqLayer0.occupancy         1540255500                       # Layer occupancy (ticks)
system.tol2bus.reqLayer0.utilization             11.5                       # Layer utilization (%)
system.tol2bus.respLayer1.occupancy         199611522                       # Layer occupancy (ticks)
system.tol2bus.respLayer1.utilization             1.5                       # Layer utilization (%)
system.tol2bus.respLayer0.occupancy        1005379383                       # Layer occupancy (ticks)
system.tol2bus.respLayer0.utilization             7.5                       # Layer utilization (%)
system.tol2bus.power_state.pwrStateResidencyTicks::UNDEFINED  13443027000                       # Cumulative time (in ticks) in various power states
system.voltage_domain.voltage                       1                       # Voltage in Volts
system.clk_domain.clock                          1000                       # Clock period in ticks
system.l2.demand_hits::.switch_cpus.inst       638178                       # number of demand (read+write) hits
system.l2.demand_hits::.switch_cpus.data        79069                       # number of demand (read+write) hits
system.l2.demand_hits::total                   717247                       # number of demand (read+write) hits
system.l2.overall_hits::.switch_cpus.inst       638178                       # number of overall hits
system.l2.overall_hits::.switch_cpus.data        79069                       # number of overall hits
system.l2.overall_hits::total                  717247                       # number of overall hits
system.l2.demand_misses::.cpu.inst                  2                       # number of demand (read+write) misses
system.l2.demand_misses::.cpu.data                  2                       # number of demand (read+write) misses
system.l2.demand_misses::.switch_cpus.inst        32037                       # number of demand (read+write) misses
system.l2.demand_misses::.switch_cpus.data        53846                       # number of demand (read+write) misses
system.l2.demand_misses::total                  85887                       # number of demand (read+write) misses
system.l2.overall_misses::.cpu.inst                 2                       # number of overall misses
system.l2.overall_misses::.cpu.data                 2                       # number of overall misses
system.l2.overall_misses::.switch_cpus.inst        32037                       # number of overall misses
system.l2.overall_misses::.switch_cpus.data        53846                       # number of overall misses
system.l2.overall_misses::total                 85887                       # number of overall misses
system.l2.demand_miss_latency::.switch_cpus.inst   2572536500                       # number of demand (read+write) miss cycles
system.l2.demand_miss_latency::.switch_cpus.data   4526487500                       # number of demand (read+write) miss cycles
system.l2.demand_miss_latency::total       7099024000                       # number of demand (read+write) miss cycles
system.l2.overall_miss_latency::.switch_cpus.inst   2572536500                       # number of overall miss cycles
system.l2.overall_miss_latency::.switch_cpus.data   4526487500                       # number of overall miss cycles
system.l2.overall_miss_latency::total      7099024000                       # number of overall miss cycles
system.l2.demand_accesses::.cpu.inst                2                       # number of demand (read+write) accesses
system.l2.demand_accesses::.cpu.data                2                       # number of demand (read+write) accesses
system.l2.demand_accesses::.switch_cpus.inst       670215                       # number of demand (read+write) accesses
system.l2.demand_accesses::.switch_cpus.data       132915                       # number of demand (read+write) accesses
system.l2.demand_accesses::total               803134                       # number of demand (read+write) accesses
system.l2.overall_accesses::.cpu.inst               2                       # number of overall (read+write) accesses
system.l2.overall_accesses::.cpu.data               2                       # number of overall (read+write) accesses
system.l2.overall_accesses::.switch_cpus.inst       670215                       # number of overall (read+write) accesses
system.l2.overall_accesses::.switch_cpus.data       132915                       # number of overall (read+write) accesses
system.l2.overall_accesses::total              803134                       # number of overall (read+write) accesses
system.l2.demand_miss_rate::.cpu.inst               1                       # miss rate for demand accesses
system.l2.demand_miss_rate::.cpu.data               1                       # miss rate for demand accesses
system.l2.demand_miss_rate::.switch_cpus.inst     0.047801                       # miss rate for demand accesses
system.l2.demand_miss_rate::.switch_cpus.data     0.405116                       # miss rate for demand accesses
system.l2.demand_miss_rate::total            0.106940                       # miss rate for demand accesses
system.l2.overall_miss_rate::.cpu.inst              1                       # miss rate for overall accesses
system.l2.overall_miss_rate::.cpu.data              1                       # miss rate for overall accesses
system.l2.overall_miss_rate::.switch_cpus.inst     0.047801                       # miss rate for overall accesses
system.l2.overall_miss_rate::.switch_cpus.data     0.405116                       # miss rate for overall accesses
system.l2.overall_miss_rate::total           0.106940                       # miss rate for overall accesses
system.l2.demand_avg_miss_latency::.switch_cpus.inst 80298.919999                       # average overall miss latency
system.l2.demand_avg_miss_latency::.switch_cpus.data 84063.579467                       # average overall miss latency
system.l2.demand_avg_miss_latency::total 82655.396044                       # average overall miss latency
system.l2.overall_avg_miss_latency::.switch_cpus.inst 80298.919999                       # average overall miss latency
system.l2.overall_avg_miss_latency::.switch_cpus.data 84063.579467                       # average overall miss latency
system.l2.overall_avg_miss_latency::total 82655.396044                       # average overall miss latency
system.l2.blocked_cycles::no_mshrs                  0                       # number of cycles access was blocked
system.l2.blocked_cycles::no_targets                0                       # number of cycles access was blocked
system.l2.blocked::no_mshrs                         0                       # number of cycles access was blocked
system.l2.blocked::no_targets                       0                       # number of cycles access was blocked
system.l2.avg_blocked_cycles::no_mshrs            nan                       # average number of cycles each access was blocked
system.l2.avg_blocked_cycles::no_targets          nan                       # average number of cycles each access was blocked
system.l2.writebacks::.writebacks               35745                       # number of writebacks
system.l2.writebacks::total                     35745                       # number of writebacks
system.l2.demand_mshr_hits::.switch_cpus.inst            1                       # number of demand (read+write) MSHR hits
system.l2.demand_mshr_hits::.switch_cpus.data            2                       # number of demand (read+write) MSHR hits
system.l2.demand_mshr_hits::total                   3                       # number of demand (read+write) MSHR hits
system.l2.overall_mshr_hits::.switch_cpus.inst            1                       # number of overall MSHR hits
system.l2.overall_mshr_hits::.switch_cpus.data            2                       # number of overall MSHR hits
system.l2.overall_mshr_hits::total                  3                       # number of overall MSHR hits
system.l2.demand_mshr_misses::.switch_cpus.inst        32036                       # number of demand (read+write) MSHR misses
system.l2.demand_mshr_misses::.switch_cpus.data        53844                       # number of demand (read+write) MSHR misses
system.l2.demand_mshr_misses::total             85880                       # number of demand (read+write) MSHR misses
system.l2.overall_mshr_misses::.switch_cpus.inst        32036                       # number of overall MSHR misses
system.l2.overall_mshr_misses::.switch_cpus.data        53844                       # number of overall MSHR misses
system.l2.overall_mshr_misses::total            85880                       # number of overall MSHR misses
system.l2.demand_mshr_miss_latency::.switch_cpus.inst   2252108000                       # number of demand (read+write) MSHR miss cycles
system.l2.demand_mshr_miss_latency::.switch_cpus.data   3987926500                       # number of demand (read+write) MSHR miss cycles
system.l2.demand_mshr_miss_latency::total   6240034500                       # number of demand (read+write) MSHR miss cycles
system.l2.overall_mshr_miss_latency::.switch_cpus.inst   2252108000                       # number of overall MSHR miss cycles
system.l2.overall_mshr_miss_latency::.switch_cpus.data   3987926500                       # number of overall MSHR miss cycles
system.l2.overall_mshr_miss_latency::total   6240034500                       # number of overall MSHR miss cycles
system.l2.demand_mshr_miss_rate::.switch_cpus.inst     0.047800                       # mshr miss rate for demand accesses
system.l2.demand_mshr_miss_rate::.switch_cpus.data     0.405101                       # mshr miss rate for demand accesses
system.l2.demand_mshr_miss_rate::total       0.106931                       # mshr miss rate for demand accesses
system.l2.overall_mshr_miss_rate::.switch_cpus.inst     0.047800                       # mshr miss rate for overall accesses
system.l2.overall_mshr_miss_rate::.switch_cpus.data     0.405101                       # mshr miss rate for overall accesses
system.l2.overall_mshr_miss_rate::total      0.106931                       # mshr miss rate for overall accesses
system.l2.demand_avg_mshr_miss_latency::.switch_cpus.inst 70299.288301                       # average overall mshr miss latency
system.l2.demand_avg_mshr_miss_latency::.switch_cpus.data 74064.454721                       # average overall mshr miss latency
system.l2.demand_avg_mshr_miss_latency::total 72659.926642                       # average overall mshr miss latency
system.l2.overall_avg_mshr_miss_latency::.switch_cpus.inst 70299.288301                       # average overall mshr miss latency
system.l2.overall_avg_mshr_miss_latency::.switch_cpus.data 74064.454721                       # average overall mshr miss latency
system.l2.overall_avg_mshr_miss_latency::total 72659.926642                       # average overall mshr miss latency
system.l2.replacements                         116430                       # number of replacements
system.l2.WritebackDirty_hits::.writebacks        67037                       # number of WritebackDirty hits
system.l2.WritebackDirty_hits::total            67037                       # number of WritebackDirty hits
system.l2.WritebackDirty_accesses::.writebacks        67037                       # number of WritebackDirty accesses(hits+misses)
system.l2.WritebackDirty_accesses::total        67037                       # number of WritebackDirty accesses(hits+misses)
system.l2.WritebackClean_hits::.writebacks       670150                       # number of WritebackClean hits
system.l2.WritebackClean_hits::total           670150                       # number of WritebackClean hits
system.l2.WritebackClean_accesses::.writebacks       670150                       # number of WritebackClean accesses(hits+misses)
system.l2.WritebackClean_accesses::total       670150                       # number of WritebackClean accesses(hits+misses)
system.l2.CleanEvict_mshr_misses::.writebacks         7527                       # number of CleanEvict MSHR misses
system.l2.CleanEvict_mshr_misses::total          7527                       # number of CleanEvict MSHR misses
system.l2.CleanEvict_mshr_miss_rate::.writebacks          inf                       # mshr miss rate for CleanEvict accesses
system.l2.CleanEvict_mshr_miss_rate::total          inf                       # mshr miss rate for CleanEvict accesses
system.l2.UpgradeReq_hits::.switch_cpus.data            1                       # number of UpgradeReq hits
system.l2.UpgradeReq_hits::total                    1                       # number of UpgradeReq hits
system.l2.UpgradeReq_accesses::.switch_cpus.data            1                       # number of UpgradeReq accesses(hits+misses)
system.l2.UpgradeReq_accesses::total                1                       # number of UpgradeReq accesses(hits+misses)
system.l2.ReadExReq_hits::.switch_cpus.data        23511                       # number of ReadExReq hits
system.l2.ReadExReq_hits::total                 23511                       # number of ReadExReq hits
system.l2.ReadExReq_misses::.cpu.data               2                       # number of ReadExReq misses
system.l2.ReadExReq_misses::.switch_cpus.data        28314                       # number of ReadExReq misses
system.l2.ReadExReq_misses::total               28316                       # number of ReadExReq misses
system.l2.ReadExReq_miss_latency::.switch_cpus.data   2313976000                       # number of ReadExReq miss cycles
system.l2.ReadExReq_miss_latency::total    2313976000                       # number of ReadExReq miss cycles
system.l2.ReadExReq_accesses::.cpu.data             2                       # number of ReadExReq accesses(hits+misses)
system.l2.ReadExReq_accesses::.switch_cpus.data        51825                       # number of ReadExReq accesses(hits+misses)
system.l2.ReadExReq_accesses::total             51827                       # number of ReadExReq accesses(hits+misses)
system.l2.ReadExReq_miss_rate::.cpu.data            1                       # miss rate for ReadExReq accesses
system.l2.ReadExReq_miss_rate::.switch_cpus.data     0.546339                       # miss rate for ReadExReq accesses
system.l2.ReadExReq_miss_rate::total         0.546356                       # miss rate for ReadExReq accesses
system.l2.ReadExReq_avg_miss_latency::.switch_cpus.data 81725.506816                       # average ReadExReq miss latency
system.l2.ReadExReq_avg_miss_latency::total 81719.734426                       # average ReadExReq miss latency
system.l2.ReadExReq_mshr_misses::.switch_cpus.data        28314                       # number of ReadExReq MSHR misses
system.l2.ReadExReq_mshr_misses::total          28314                       # number of ReadExReq MSHR misses
system.l2.ReadExReq_mshr_miss_latency::.switch_cpus.data   2030836000                       # number of ReadExReq MSHR miss cycles
system.l2.ReadExReq_mshr_miss_latency::total   2030836000                       # number of ReadExReq MSHR miss cycles
system.l2.ReadExReq_mshr_miss_rate::.switch_cpus.data     0.546339                       # mshr miss rate for ReadExReq accesses
system.l2.ReadExReq_mshr_miss_rate::total     0.546318                       # mshr miss rate for ReadExReq accesses
[...]
system.cpu.itb_walker_cache.blocked_cycles::no_targets            0                       # number of cycles access was blocked
system.cpu.itb_walker_cache.blocked::no_mshrs            0                       # number of cycles access was blocked
system.cpu.itb_walker_cache.blocked::no_targets            0                       # number of cycles access was blocked
system.cpu.itb_walker_cache.avg_blocked_cycles::no_mshrs          nan                       # average number of cycles each access was blocked
system.cpu.itb_walker_cache.avg_blocked_cycles::no_targets          nan                       # average number of cycles each access was blocked
system.cpu.itb_walker_cache.replacements            0                       # number of replacements
system.cpu.itb_walker_cache.power_state.pwrStateResidencyTicks::UNDEFINED  14779832500                       # Cumulative time (in ticks) in various power states
system.cpu.itb_walker_cache.tags.tagsinuse            0                       # Cycle average of tags in use
system.cpu.itb_walker_cache.tags.total_refs            0                       # Total number of references to valid blocks.
system.cpu.itb_walker_cache.tags.sampled_refs            0                       # Sample count of references to valid blocks.
system.cpu.itb_walker_cache.tags.avg_refs          nan                       # Average number of references to valid blocks.
system.cpu.itb_walker_cache.tags.warmup_cycle            0                       # Cycle when the warmup percentage was hit.
system.cpu.itb_walker_cache.tags.tag_accesses            0                       # Number of tag accesses
system.cpu.itb_walker_cache.tags.data_accesses            0                       # Number of data accesses
system.cpu.itb_walker_cache.tags.power_state.pwrStateResidencyTicks::UNDEFINED  14779832500                       # Cumulative time (in ticks) in various power states
system.cpu.itb.walker.power_state.pwrStateResidencyTicks::UNDEFINED  14779832500                       # Cumulative time (in ticks) in various power states
system.cpu.dtb_walker_cache.blocked_cycles::no_mshrs            0                       # number of cycles access was blocked
system.cpu.dtb_walker_cache.blocked_cycles::no_targets            0                       # number of cycles access was blocked
system.cpu.dtb_walker_cache.blocked::no_mshrs            0                       # number of cycles access was blocked
system.cpu.dtb_walker_cache.blocked::no_targets            0                       # number of cycles access was blocked
system.cpu.dtb_walker_cache.avg_blocked_cycles::no_mshrs          nan                       # average number of cycles each access was blocked
system.cpu.dtb_walker_cache.avg_blocked_cycles::no_targets          nan                       # average number of cycles each access was blocked
system.cpu.dtb_walker_cache.replacements            0                       # number of replacements
system.cpu.dtb_walker_cache.power_state.pwrStateResidencyTicks::UNDEFINED  14779832500                       # Cumulative time (in ticks) in various power states
system.cpu.dtb_walker_cache.tags.tagsinuse            0                       # Cycle average of tags in use
system.cpu.dtb_walker_cache.tags.total_refs            0                       # Total number of references to valid blocks.
system.cpu.dtb_walker_cache.tags.sampled_refs            0                       # Sample count of references to valid blocks.
system.cpu.dtb_walker_cache.tags.avg_refs          nan                       # Average number of references to valid blocks.
system.cpu.dtb_walker_cache.tags.warmup_cycle            0                       # Cycle when the warmup percentage was hit.
system.cpu.dtb_walker_cache.tags.tag_accesses            0                       # Number of tag accesses
system.cpu.dtb_walker_cache.tags.data_accesses            0                       # Number of data accesses
system.cpu.dtb_walker_cache.tags.power_state.pwrStateResidencyTicks::UNDEFINED  14779832500                       # Cumulative time (in ticks) in various power states
system.cpu.dcache.demand_hits::.cpu.data            5                       # number of demand (read+write) hits
system.cpu.dcache.demand_hits::.switch_cpus.data      3517985                       # number of demand (read+write) hits
system.cpu.dcache.demand_hits::total          3517990                       # number of demand (read+write) hits
system.cpu.dcache.overall_hits::.cpu.data            5                       # number of overall hits
system.cpu.dcache.overall_hits::.switch_cpus.data      3517985                       # number of overall hits
system.cpu.dcache.overall_hits::total         3517990                       # number of overall hits
system.cpu.dcache.demand_misses::.cpu.data            2                       # number of demand (read+write) misses
system.cpu.dcache.demand_misses::.switch_cpus.data       212504                       # number of demand (read+write) misses
system.cpu.dcache.demand_misses::total         212506                       # number of demand (read+write) misses
system.cpu.dcache.overall_misses::.cpu.data            2                       # number of overall misses
system.cpu.dcache.overall_misses::.switch_cpus.data       212504                       # number of overall misses
system.cpu.dcache.overall_misses::total        212506                       # number of overall misses
system.cpu.dcache.demand_miss_latency::.switch_cpus.data   9579910447                       # number of demand (read+write) miss cycles
system.cpu.dcache.demand_miss_latency::total   9579910447                       # number of demand (read+write) miss cycles
system.cpu.dcache.overall_miss_latency::.switch_cpus.data   9579910447                       # number of overall miss cycles
system.cpu.dcache.overall_miss_latency::total   9579910447                       # number of overall miss cycles
system.cpu.dcache.demand_accesses::.cpu.data            7                       # number of demand (read+write) accesses
system.cpu.dcache.demand_accesses::.switch_cpus.data      3730489                       # number of demand (read+write) accesses
system.cpu.dcache.demand_accesses::total      3730496                       # number of demand (read+write) accesses
system.cpu.dcache.overall_accesses::.cpu.data            7                       # number of overall (read+write) accesses
system.cpu.dcache.overall_accesses::.switch_cpus.data      3730489                       # number of overall (read+write) accesses
system.cpu.dcache.overall_accesses::total      3730496                       # number of overall (read+write) accesses
system.cpu.dcache.demand_miss_rate::.cpu.data     0.285714                       # miss rate for demand accesses
system.cpu.dcache.demand_miss_rate::.switch_cpus.data     0.056964                       # miss rate for demand accesses
system.cpu.dcache.demand_miss_rate::total     0.056965                       # miss rate for demand accesses
system.cpu.dcache.overall_miss_rate::.cpu.data     0.285714                       # miss rate for overall accesses
system.cpu.dcache.overall_miss_rate::.switch_cpus.data     0.056964                       # miss rate for overall accesses
system.cpu.dcache.overall_miss_rate::total     0.056965                       # miss rate for overall accesses
system.cpu.dcache.demand_avg_miss_latency::.switch_cpus.data 45081.082930                       # average overall miss latency
system.cpu.dcache.demand_avg_miss_latency::total 45080.658650                       # average overall miss latency
system.cpu.dcache.overall_avg_miss_latency::.switch_cpus.data 45081.082930                       # average overall miss latency
system.cpu.dcache.overall_avg_miss_latency::total 45080.658650                       # average overall miss latency
system.cpu.dcache.blocked_cycles::no_mshrs       311237                       # number of cycles access was blocked
system.cpu.dcache.blocked_cycles::no_targets          123                       # number of cycles access was blocked
system.cpu.dcache.blocked::no_mshrs             11146                       # number of cycles access was blocked
system.cpu.dcache.blocked::no_targets               4                       # number of cycles access was blocked
system.cpu.dcache.avg_blocked_cycles::no_mshrs    27.923650                       # average number of cycles each access was blocked
system.cpu.dcache.avg_blocked_cycles::no_targets    30.750000                       # average number of cycles each access was blocked
system.cpu.dcache.writebacks::.writebacks        73666                       # number of writebacks
system.cpu.dcache.writebacks::total             73666                       # number of writebacks
system.cpu.dcache.demand_mshr_hits::.switch_cpus.data        66829                       # number of demand (read+write) MSHR hits
system.cpu.dcache.demand_mshr_hits::total        66829                       # number of demand (read+write) MSHR hits
system.cpu.dcache.overall_mshr_hits::.switch_cpus.data        66829                       # number of overall MSHR hits
system.cpu.dcache.overall_mshr_hits::total        66829                       # number of overall MSHR hits
system.cpu.dcache.demand_mshr_misses::.switch_cpus.data       145675                       # number of demand (read+write) MSHR misses
system.cpu.dcache.demand_mshr_misses::total       145675                       # number of demand (read+write) MSHR misses
system.cpu.dcache.overall_mshr_misses::.switch_cpus.data       145675                       # number of overall MSHR misses
system.cpu.dcache.overall_mshr_misses::total       145675                       # number of overall MSHR misses
system.cpu.dcache.demand_mshr_miss_latency::.switch_cpus.data   6155916468                       # number of demand (read+write) MSHR miss cycles
system.cpu.dcache.demand_mshr_miss_latency::total   6155916468                       # number of demand (read+write) MSHR miss cycles
system.cpu.dcache.overall_mshr_miss_latency::.switch_cpus.data   6155916468                       # number of overall MSHR miss cycles
system.cpu.dcache.overall_mshr_miss_latency::total   6155916468                       # number of overall MSHR miss cycles
system.cpu.dcache.demand_mshr_miss_rate::.switch_cpus.data     0.039050                       # mshr miss rate for demand accesses
system.cpu.dcache.demand_mshr_miss_rate::total     0.039050                       # mshr miss rate for demand accesses
system.cpu.dcache.overall_mshr_miss_rate::.switch_cpus.data     0.039050                       # mshr miss rate for overall accesses
system.cpu.dcache.overall_mshr_miss_rate::total     0.039050                       # mshr miss rate for overall accesses
system.cpu.dcache.demand_avg_mshr_miss_latency::.switch_cpus.data 42257.878620                       # average overall mshr miss latency
system.cpu.dcache.demand_avg_mshr_miss_latency::total 42257.878620                       # average overall mshr miss latency
system.cpu.dcache.overall_avg_mshr_miss_latency::.switch_cpus.data 42257.878620                       # average overall mshr miss latency
system.cpu.dcache.overall_avg_mshr_miss_latency::total 42257.878620                       # average overall mshr miss latency
system.cpu.dcache.replacements                 145610                       # number of replacements
system.cpu.dcache.ReadReq_hits::.switch_cpus.data      1958936                       # number of ReadReq hits
system.cpu.dcache.ReadReq_hits::total         1958936                       # number of ReadReq hits
system.cpu.dcache.ReadReq_misses::.switch_cpus.data       152513                       # number of ReadReq misses
system.cpu.dcache.ReadReq_misses::total        152513                       # number of ReadReq misses
system.cpu.dcache.ReadReq_miss_latency::.switch_cpus.data   6498242500                       # number of ReadReq miss cycles
system.cpu.dcache.ReadReq_miss_latency::total   6498242500                       # number of ReadReq miss cycles
system.cpu.dcache.ReadReq_accesses::.switch_cpus.data      2111449                       # number of ReadReq accesses(hits+misses)
system.cpu.dcache.ReadReq_accesses::total      2111449                       # number of ReadReq accesses(hits+misses)
system.cpu.dcache.ReadReq_miss_rate::.switch_cpus.data     0.072231                       # miss rate for ReadReq accesses
system.cpu.dcache.ReadReq_miss_rate::total     0.072231                       # miss rate for ReadReq accesses
system.cpu.dcache.ReadReq_avg_miss_latency::.switch_cpus.data 42607.794090                       # average ReadReq miss latency
system.cpu.dcache.ReadReq_avg_miss_latency::total 42607.794090                       # average ReadReq miss latency
system.cpu.dcache.ReadReq_mshr_hits::.switch_cpus.data        63836                       # number of ReadReq MSHR hits
system.cpu.dcache.ReadReq_mshr_hits::total        63836                       # number of ReadReq MSHR hits
system.cpu.dcache.ReadReq_mshr_misses::.switch_cpus.data        88677                       # number of ReadReq MSHR misses
system.cpu.dcache.ReadReq_mshr_misses::total        88677                       # number of ReadReq MSHR misses
system.cpu.dcache.ReadReq_mshr_miss_latency::.switch_cpus.data   3202617500                       # number of ReadReq MSHR miss cycles
system.cpu.dcache.ReadReq_mshr_miss_latency::total   3202617500                       # number of ReadReq MSHR miss cycles
system.cpu.dcache.ReadReq_mshr_miss_rate::.switch_cpus.data     0.041998                       # mshr miss rate for ReadReq accesses
system.cpu.dcache.ReadReq_mshr_miss_rate::total     0.041998                       # mshr miss rate for ReadReq accesses
system.cpu.dcache.ReadReq_avg_mshr_miss_latency::.switch_cpus.data 36115.537287                       # average ReadReq mshr miss latency
system.cpu.dcache.ReadReq_avg_mshr_miss_latency::total 36115.537287                       # average ReadReq mshr miss latency
system.cpu.dcache.WriteReq_hits::.cpu.data            5                       # number of WriteReq hits
system.cpu.dcache.WriteReq_hits::.switch_cpus.data      1559049                       # number of WriteReq hits
system.cpu.dcache.WriteReq_hits::total        1559054                       # number of WriteReq hits
system.cpu.dcache.WriteReq_misses::.cpu.data            2                       # number of WriteReq misses
system.cpu.dcache.WriteReq_misses::.switch_cpus.data        59991                       # number of WriteReq misses
system.cpu.dcache.WriteReq_misses::total        59993                       # number of WriteReq misses
system.cpu.dcache.WriteReq_miss_latency::.switch_cpus.data   3081667947                       # number of WriteReq miss cycles
system.cpu.dcache.WriteReq_miss_latency::total   3081667947                       # number of WriteReq miss cycles
system.cpu.dcache.WriteReq_accesses::.cpu.data            7                       # number of WriteReq accesses(hits+misses)
system.cpu.dcache.WriteReq_accesses::.switch_cpus.data      1619040                       # number of WriteReq accesses(hits+misses)
system.cpu.dcache.WriteReq_accesses::total      1619047                       # number of WriteReq accesses(hits+misses)
system.cpu.dcache.WriteReq_miss_rate::.cpu.data     0.285714                       # miss rate for WriteReq accesses
system.cpu.dcache.WriteReq_miss_rate::.switch_cpus.data     0.037053                       # miss rate for WriteReq accesses
system.cpu.dcache.WriteReq_miss_rate::total     0.037055                       # miss rate for WriteReq accesses
system.cpu.dcache.WriteReq_avg_miss_latency::.switch_cpus.data 51368.837776                       # average WriteReq miss latency
system.cpu.dcache.WriteReq_avg_miss_latency::total 51367.125281                       # average WriteReq miss latency
system.cpu.dcache.WriteReq_mshr_hits::.switch_cpus.data         2993                       # number of WriteReq MSHR hits
system.cpu.dcache.WriteReq_mshr_hits::total         2993                       # number of WriteReq MSHR hits
system.cpu.dcache.WriteReq_mshr_misses::.switch_cpus.data        56998                       # number of WriteReq MSHR misses
system.cpu.dcache.WriteReq_mshr_misses::total        56998                       # number of WriteReq MSHR misses
system.cpu.dcache.WriteReq_mshr_miss_latency::.switch_cpus.data   2953298968                       # number of WriteReq MSHR miss cycles
system.cpu.dcache.WriteReq_mshr_miss_latency::total   2953298968                       # number of WriteReq MSHR miss cycles
system.cpu.dcache.WriteReq_mshr_miss_rate::.switch_cpus.data     0.035205                       # mshr miss rate for WriteReq accesses
system.cpu.dcache.WriteReq_mshr_miss_rate::total     0.035205                       # mshr miss rate for WriteReq accesses
system.cpu.dcache.WriteReq_avg_mshr_miss_latency::.switch_cpus.data 51814.080634                       # average WriteReq mshr miss latency
system.cpu.dcache.WriteReq_avg_mshr_miss_latency::total 51814.080634                       # average WriteReq mshr miss latency
system.cpu.dcache.power_state.pwrStateResidencyTicks::UNDEFINED  14779832500                       # Cumulative time (in ticks) in various power states
system.cpu.dcache.tags.tagsinuse            63.989277                       # Cycle average of tags in use
system.cpu.dcache.tags.total_refs             3663665                       # Total number of references to valid blocks.
system.cpu.dcache.tags.sampled_refs            145674                       # Sample count of references to valid blocks.
system.cpu.dcache.tags.avg_refs             25.149752                       # Average number of references to valid blocks.
system.cpu.dcache.tags.warmup_cycle              1500                       # Cycle when the warmup percentage was hit.
system.cpu.dcache.tags.occ_blocks::.cpu.data     0.000287                       # Average occupied blocks per requestor
system.cpu.dcache.tags.occ_blocks::.switch_cpus.data    63.988991                       # Average occupied blocks per requestor
system.cpu.dcache.tags.occ_percent::.cpu.data     0.000004                       # Average percentage of cache occupancy
system.cpu.dcache.tags.occ_percent::.switch_cpus.data     0.999828                       # Average percentage of cache occupancy
system.cpu.dcache.tags.occ_percent::total     0.999832                       # Average percentage of cache occupancy
system.cpu.dcache.tags.occ_task_id_blocks::1024           64                       # Occupied blocks per task id
system.cpu.dcache.tags.age_task_id_blocks_1024::0           30                       # Occupied blocks per task id
system.cpu.dcache.tags.age_task_id_blocks_1024::1           28                       # Occupied blocks per task id
system.cpu.dcache.tags.age_task_id_blocks_1024::2            6                       # Occupied blocks per task id
system.cpu.dcache.tags.occ_task_id_percent::1024            1                       # Percentage of cache occupancy per task id
system.cpu.dcache.tags.tag_accesses           7606666                       # Number of tag accesses
system.cpu.dcache.tags.data_accesses          7606666                       # Number of data accesses
system.cpu.dcache.tags.power_state.pwrStateResidencyTicks::UNDEFINED  14779832500                       # Cumulative time (in ticks) in various power states
system.cpu.power_state.numTransitions               1                       # Number of power state transitions
system.cpu.power_state.pwrStateResidencyTicks::ON        10500                       # Cumulative time (in ticks) in various power states
system.cpu.power_state.pwrStateResidencyTicks::OFF  14779822000                       # Cumulative time (in ticks) in various power states

---------- End Simulation Statistics   ----------
