
---------- Begin Simulation Statistics ----------
final_tick                                 7907118500                       # Number of ticks from beginning of simulation (restored from checkpoints and never reset)
host_inst_rate                                 101225                       # Simulator instruction rate (inst/s)
host_mem_usage                                 880652                       # Number of bytes of host memory used
host_op_rate                                   213128                       # Simulator op (including micro ops) rate (op/s)
host_seconds                                    98.79                       # Real time elapsed on the host
host_tick_rate                               80039439                       # Simulator tick rate (ticks/s)
sim_freq                                 1000000000000                       # Frequency of simulated ticks
sim_insts                                    10000010                       # Number of instructions simulated
sim_ops                                      21054980                       # Number of ops (including micro ops) simulated
sim_seconds                                  0.007907                       # Number of seconds simulated
sim_ticks                                  7907118500                       # Number of ticks simulated
system.cpu.Branches                                 1                       # Number of branches fetched
system.cpu.committedInsts                          10                       # Number of instructions committed
system.cpu.committedOps                            21                       # Number of ops (including micro ops) committed
system.cpu.dtb.rdAccesses                           0                       # TLB accesses on read requests
system.cpu.dtb.rdMisses                             0                       # TLB misses on read requests
system.cpu.dtb.wrAccesses                           7                       # TLB accesses on write requests
system.cpu.dtb.wrMisses                             1                       # TLB misses on write requests
system.cpu.idle_fraction                            0                       # Percentage of idle cycles
system.cpu.itb.rdAccesses                           0                       # TLB accesses on read requests
system.cpu.itb.rdMisses                             0                       # TLB misses on read requests
system.cpu.itb.wrAccesses                          10                       # TLB accesses on write requests
system.cpu.itb.wrMisses                             0                       # TLB misses on write requests
system.cpu.not_idle_fraction                        1                       # Percentage of non-idle cycles
system.cpu.numCycles                               21                       # number of cpu cycles simulated
system.cpu.numWorkItemsCompleted                    0                       # number of work items this cpu completed
system.cpu.numWorkItemsStarted                      0                       # number of work items this cpu started
system.cpu.num_busy_cycles                         21                       # Number of busy cycles
system.cpu.num_cc_register_writes                   2                       # number of times the CC registers were written
system.cpu.num_conditional_control_insts            0                       # number of instructions that are conditional controls
system.cpu.num_fp_alu_accesses                      0                       # Number of float alu accesses
system.cpu.num_fp_insts                             0                       # number of float instructions
system.cpu.num_fp_register_reads                    0                       # number of times the floating registers were read
system.cpu.num_fp_register_writes                   0                       # number of times the floating registers were written
system.cpu.num_func_calls                           1                       # number of times a function call or return occured
system.cpu.num_idle_cycles                          0                       # Number of idle cycles
system.cpu.num_int_alu_accesses                    21                       # Number of integer alu accesses
system.cpu.num_int_insts                           21                       # number of integer instructions
system.cpu.num_int_register_reads                  47                       # number of times the integer registers were read
system.cpu.num_int_register_writes                 13                       # number of times the integer registers were written
system.cpu.num_load_insts                           0                       # Number of load instructions
system.cpu.num_mem_refs                             7                       # number of memory refs
system.cpu.num_store_insts                          7                       # Number of store instructions
system.cpu.num_vec_alu_accesses                     0                       # Number of vector alu accesses
system.cpu.num_vec_insts                            0                       # number of vector instructions
system.cpu.num_vec_register_reads                   0                       # number of times the vector registers were read
system.cpu.num_vec_register_writes                  0                       # number of times the vector registers were written
system.cpu.op_class::No_OpClass                     0      0.00%      0.00% # Class of executed instruction
system.cpu.op_class::IntAlu                        14     66.67%     66.67% # Class of executed instruction
system.cpu.op_class::IntMult                        0      0.00%     66.67% # Class of executed instruction
system.cpu.op_class::IntDiv                         0      0.00%     66.67% # Class of executed instruction
system.cpu.op_class::FloatAdd                       0      0.00%     66.67% # Class of executed instruction
system.cpu.op_class::FloatCmp                       0      0.00%     66.67% # Class of executed instruction
system.cpu.op_class::FloatCvt                       0      0.00%     66.67% # Class of executed instruction
system.cpu.op_class::FloatMult                      0      0.00%     66.67% # Class of executed instruction
system.cpu.op_class::FloatMultAcc                   0      0.00%     66.67% # Class of executed instruction
system.cpu.op_class::FloatDiv                       0      0.00%     66.67% # Class of executed instruction
system.cpu.op_class::FloatMisc                      0      0.00%     66.67% # Class of executed instruction
system.cpu.op_class::FloatSqrt                      0      0.00%     66.67% # Class of executed instruction
system.cpu.op_class::SimdAdd                        0      0.00%     66.67% # Class of executed instruction
system.cpu.op_class::SimdAddAcc                     0      0.00%     66.67% # Class of executed instruction
system.cpu.op_class::SimdAlu                        0      0.00%     66.67% # Class of executed instruction
system.cpu.op_class::SimdCmp                        0      0.00%     66.67% # Class of executed instruction
system.cpu.op_class::SimdCvt                        0      0.00%     66.67% # Class of executed instruction
system.cpu.op_class::SimdMisc                       0      0.00%     66.67% # Class of executed instruction
system.cpu.op_class::SimdMult                       0      0.00%     66.67% # Class of executed instruction
system.cpu.op_class::SimdMultAcc                    0      0.00%     66.67% # Class of executed instruction
system.cpu.op_class::SimdShift                      0      0.00%     66.67% # Class of executed instruction
system.cpu.op_class::SimdShiftAcc                   0      0.00%     66.67% # Class of executed instruction
system.cpu.op_class::SimdDiv                        0      0.00%     66.67% # Class of executed instruction
system.cpu.op_class::SimdSqrt                       0      0.00%     66.67% # Class of executed instruction
system.cpu.op_class::SimdFloatAdd                   0      0.00%     66.67% # Class of executed instruction
system.cpu.op_class::SimdFloatAlu                   0      0.00%     66.67% # Class of executed instruction
system.cpu.op_class::SimdFloatCmp                   0      0.00%     66.67% # Class of executed instruction
system.cpu.op_class::SimdFloatCvt                   0      0.00%     66.67% # Class of executed instruction
system.cpu.op_class::SimdFloatDiv                   0      0.00%     66.67% # Class of executed instruction
system.cpu.op_class::SimdFloatMisc                  0      0.00%     66.67% # Class of executed instruction
system.cpu.op_class::SimdFloatMult                  0      0.00%     66.67% # Class of executed instruction
system.cpu.op_class::SimdFloatMultAcc               0      0.00%     66.67% # Class of executed instruction
system.cpu.op_class::SimdFloatSqrt                  0      0.00%     66.67% # Class of executed instruction
system.cpu.op_class::SimdReduceAdd                  0      0.00%     66.67% # Class of executed instruction
system.cpu.op_class::SimdReduceAlu                  0      0.00%     66.67% # Class of executed instruction
system.cpu.op_class::SimdReduceCmp                  0      0.00%     66.67% # Class of executed instruction
system.cpu.op_class::SimdFloatReduceAdd             0      0.00%     66.67% # Class of executed instruction
system.cpu.op_class::SimdFloatReduceCmp             0      0.00%     66.67% # Class of executed instruction
system.cpu.op_class::SimdAes                        0      0.00%     66.67% # Class of executed instruction
system.cpu.op_class::SimdAesMix                     0      0.00%     66.67% # Class of executed instruction
system.cpu.op_class::SimdSha1Hash                   0      0.00%     66.67% # Class of executed instruction
system.cpu.op_class::SimdSha1Hash2                  0      0.00%     66.67% # Class of executed instruction
system.cpu.op_class::SimdSha256Hash                 0      0.00%     66.67% # Class of executed instruction
system.cpu.op_class::SimdSha256Hash2                0      0.00%     66.67% # Class of executed instruction
system.cpu.op_class::SimdShaSigma2                  0      0.00%     66.67% # Class of executed instruction
system.cpu.op_class::SimdShaSigma3                  0      0.00%     66.67% # Class of executed instruction
system.cpu.op_class::SimdPredAlu                    0      0.00%     66.67% # Class of executed instruction
system.cpu.op_class::MemRead                        0      0.00%     66.67% # Class of executed instruction
system.cpu.op_class::MemWrite                       7     33.33%    100.00% # Class of executed instruction
system.cpu.op_class::FloatMemRead                   0      0.00%    100.00% # Class of executed instruction
system.cpu.op_class::FloatMemWrite                  0      0.00%    100.00% # Class of executed instruction
system.cpu.op_class::IprAccess                      0      0.00%    100.00% # Class of executed instruction
system.cpu.op_class::InstPrefetch                   0      0.00%    100.00% # Class of executed instruction
system.cpu.op_class::total                         21                       # Class of executed instruction
system.cpu.workload.numSyscalls                    65                       # Number of system calls
system.membus.snoop_filter.hit_multi_requests            0                       # Number of requests hitting in the snoop filter with multiple (>1) holders of the requested data.
system.membus.snoop_filter.hit_multi_snoops            0                       # Number of snoops hitting in the snoop filter with multiple (>1) holders of the requested data.
system.membus.snoop_filter.hit_single_requests        43740                       # Number of requests hitting in the snoop filter with a single holder of the requested data.
system.membus.snoop_filter.hit_single_snoops            0                       # Number of snoops hitting in the snoop filter with a single holder of the requested data.
system.membus.snoop_filter.tot_requests         87785                       # Total number of requests made to the snoop filter.
system.membus.snoop_filter.tot_snoops               0                       # Total number of snoops made to the snoop filter.
system.switch_cpus.branchPred.BTBCorrect            0                       # Number of correct BTB predictions (this stat may not work properly.
system.switch_cpus.branchPred.BTBHitPct           nan                       # BTB Hit Percentage
system.switch_cpus.branchPred.BTBHits               0                       # Number of BTB hits
system.switch_cpus.branchPred.BTBLookups            0                       # Number of BTB lookups
system.switch_cpus.branchPred.RASInCorrect           41                       # Number of incorrect RAS predictions.
system.switch_cpus.branchPred.condIncorrect       147735                       # Number of conditional branches incorrect
system.switch_cpus.branchPred.condPredicted      3137748                       # Number of conditional branches predicted
system.switch_cpus.branchPred.indirectHits      1729843                       # Number of indirect target hits.
system.switch_cpus.branchPred.indirectLookups      1954150                       # Number of indirect predictor lookups.
system.switch_cpus.branchPred.indirectMisses       224307                       # Number of indirect misses.
system.switch_cpus.branchPred.lookups         3453481                       # Number of BP lookups
system.switch_cpus.branchPred.usedRAS          158257                       # Number of times the RAS was used to get a target.
system.switch_cpus.branchPredindirectMispredicted        68474                       # Number of mispredicted indirect branches.
system.switch_cpus.cc_regfile_reads          12664710                       # number of cc regfile reads
system.switch_cpus.cc_regfile_writes          6413649                       # number of cc regfile writes
system.switch_cpus.commit.amos                      0                       # Number of atomic instructions committed
system.switch_cpus.commit.branchMispredicts       149046                       # The number of times a branch was mispredicted
system.switch_cpus.commit.branches            2422129                       # Number of branches committed
system.switch_cpus.commit.bw_lim_events       1192917                       # number cycles where commit BW limit reached
system.switch_cpus.commit.commitNonSpecStalls          365                       # The number of times commit has been forced to stall to communicate backwards
system.switch_cpus.commit.commitSquashedInsts      5614421                       # The number of squashed insts skipped by commit
system.switch_cpus.commit.committedInsts     10000000                       # Number of instructions committed
system.switch_cpus.commit.committedOps       21054959                       # Number of ops (including micro ops) committed
system.switch_cpus.commit.committed_per_cycle::samples     13826816                       # Number of insts commited each cycle
system.switch_cpus.commit.committed_per_cycle::mean     1.522763                       # Number of insts commited each cycle
system.switch_cpus.commit.committed_per_cycle::stdev     2.479671                       # Number of insts commited each cycle
system.switch_cpus.commit.committed_per_cycle::underflows            0      0.00%      0.00% # Number of insts commited each cycle
system.switch_cpus.commit.committed_per_cycle::0      8326772     60.22%     60.22% # Number of insts commited each cycle
system.switch_cpus.commit.committed_per_cycle::1      1283874      9.29%     69.51% # Number of insts commited each cycle
system.switch_cpus.commit.committed_per_cycle::2       823871      5.96%     75.47% # Number of insts commited each cycle
system.switch_cpus.commit.committed_per_cycle::3      1010701      7.31%     82.78% # Number of insts commited each cycle
system.switch_cpus.commit.committed_per_cycle::4       730356      5.28%     88.06% # Number of insts commited each cycle
system.switch_cpus.commit.committed_per_cycle::5       238462      1.72%     89.78% # Number of insts commited each cycle
system.switch_cpus.commit.committed_per_cycle::6       104871      0.76%     90.54% # Number of insts commited each cycle
system.switch_cpus.commit.committed_per_cycle::7       114992      0.83%     91.37% # Number of insts commited each cycle
system.switch_cpus.commit.committed_per_cycle::8      1192917      8.63%    100.00% # Number of insts commited each cycle
system.switch_cpus.commit.committed_per_cycle::overflows            0      0.00%    100.00% # Number of insts commited each cycle
system.switch_cpus.commit.committed_per_cycle::min_value            0                       # Number of insts commited each cycle
system.switch_cpus.commit.committed_per_cycle::max_value            8                       # Number of insts commited each cycle
system.switch_cpus.commit.committed_per_cycle::total     13826816                       # Number of insts commited each cycle
system.switch_cpus.commit.fp_insts            4621439                       # Number of committed floating point instructions.
system.switch_cpus.commit.function_calls       112444                       # Number of function calls committed.
system.switch_cpus.commit.int_insts          16966305                       # Number of committed integer instructions.
system.switch_cpus.commit.loads               2194240                       # Number of loads committed
system.switch_cpus.commit.membars                  20                       # Number of memory barriers committed
system.switch_cpus.commit.op_class_0::No_OpClass       559512      2.66%      2.66% # Class of committed instruction
system.switch_cpus.commit.op_class_0::IntAlu     14146925     67.19%     69.85% # Class of committed instruction
system.switch_cpus.commit.op_class_0::IntMult        48504      0.23%     70.08% # Class of committed instruction
system.switch_cpus.commit.op_class_0::IntDiv         2246      0.01%     70.09% # Class of committed instruction
system.switch_cpus.commit.op_class_0::FloatAdd       628858      2.99%     73.08% # Class of committed instruction
system.switch_cpus.commit.op_class_0::FloatCmp            0      0.00%     73.08% # Class of committed instruction
system.switch_cpus.commit.op_class_0::FloatCvt          480      0.00%     73.08% # Class of committed instruction
system.switch_cpus.commit.op_class_0::FloatMult            0      0.00%     73.08% # Class of committed instruction
system.switch_cpus.commit.op_class_0::FloatMultAcc            0      0.00%     73.08% # Class of committed instruction
system.switch_cpus.commit.op_class_0::FloatDiv            0      0.00%     73.08% # Class of committed instruction
system.switch_cpus.commit.op_class_0::FloatMisc            0      0.00%     73.08% # Class of committed instruction
system.switch_cpus.commit.op_class_0::FloatSqrt            0      0.00%     73.08% # Class of committed instruction
system.switch_cpus.commit.op_class_0::SimdAdd           54      0.00%     73.08% # Class of committed instruction
system.switch_cpus.commit.op_class_0::SimdAddAcc            0      0.00%     73.08% # Class of committed instruction
system.switch_cpus.commit.op_class_0::SimdAlu       235759      1.12%     74.20% # Class of committed instruction
system.switch_cpus.commit.op_class_0::SimdCmp         4992      0.02%     74.22% # Class of committed instruction
system.switch_cpus.commit.op_class_0::SimdCvt        21640      0.10%     74.32% # Class of committed instruction
system.switch_cpus.commit.op_class_0::SimdMisc       254845      1.21%     75.53% # Class of committed instruction
system.switch_cpus.commit.op_class_0::SimdMult            0      0.00%     75.53% # Class of committed instruction
system.switch_cpus.commit.op_class_0::SimdMultAcc            0      0.00%     75.53% # Class of committed instruction
system.switch_cpus.commit.op_class_0::SimdShift           22      0.00%     75.53% # Class of committed instruction
system.switch_cpus.commit.op_class_0::SimdShiftAcc            0      0.00%     75.53% # Class of committed instruction
system.switch_cpus.commit.op_class_0::SimdDiv            0      0.00%     75.53% # Class of committed instruction
system.switch_cpus.commit.op_class_0::SimdSqrt            0      0.00%     75.53% # Class of committed instruction
system.switch_cpus.commit.op_class_0::SimdFloatAdd       656958      3.12%     78.66% # Class of committed instruction
system.switch_cpus.commit.op_class_0::SimdFloatAlu            0      0.00%     78.66% # Class of committed instruction
system.switch_cpus.commit.op_class_0::SimdFloatCmp            0      0.00%     78.66% # Class of committed instruction
system.switch_cpus.commit.op_class_0::SimdFloatCvt       476252      2.26%     80.92% # Class of committed instruction
system.switch_cpus.commit.op_class_0::SimdFloatDiv        45450      0.22%     81.13% # Class of committed instruction
system.switch_cpus.commit.op_class_0::SimdFloatMisc            0      0.00%     81.13% # Class of committed instruction
system.switch_cpus.commit.op_class_0::SimdFloatMult       444463      2.11%     83.24% # Class of committed instruction
system.switch_cpus.commit.op_class_0::SimdFloatMultAcc            0      0.00%     83.24% # Class of committed instruction
system.switch_cpus.commit.op_class_0::SimdFloatSqrt            0      0.00%     83.24% # Class of committed instruction
system.switch_cpus.commit.op_class_0::SimdReduceAdd            0      0.00%     83.24% # Class of committed instruction
system.switch_cpus.commit.op_class_0::SimdReduceAlu            0      0.00%     83.24% # Class of committed instruction
system.switch_cpus.commit.op_class_0::SimdReduceCmp            0      0.00%     83.24% # Class of committed instruction
system.switch_cpus.commit.op_class_0::SimdFloatReduceAdd            0      0.00%     83.24% # Class of committed instruction
system.switch_cpus.commit.op_class_0::SimdFloatReduceCmp            0      0.00%     83.24% # Class of committed instruction
system.switch_cpus.commit.op_class_0::SimdAes            0      0.00%     83.24% # Class of committed instruction
system.switch_cpus.commit.op_class_0::SimdAesMix            0      0.00%     83.24% # Class of committed instruction
system.switch_cpus.commit.op_class_0::SimdSha1Hash            0      0.00%     83.24% # Class of committed instruction
system.switch_cpus.commit.op_class_0::SimdSha1Hash2            0      0.00%     83.24% # Class of committed instruction
system.switch_cpus.commit.op_class_0::SimdSha256Hash            0      0.00%     83.24% # Class of committed instruction
system.switch_cpus.commit.op_class_0::SimdSha256Hash2            0      0.00%     83.24% # Class of committed instruction
system.switch_cpus.commit.op_class_0::SimdShaSigma2            0      0.00%     83.24% # Class of committed instruction
system.switch_cpus.commit.op_class_0::SimdShaSigma3            0      0.00%     83.24% # Class of committed instruction
system.switch_cpus.commit.op_class_0::SimdPredAlu            0      0.00%     83.24% # Class of committed instruction
system.switch_cpus.commit.op_class_0::MemRead      1394522      6.62%     89.87% # Class of committed instruction
system.switch_cpus.commit.op_class_0::MemWrite      1143487      5.43%     95.30% # Class of committed instruction
system.switch_cpus.commit.op_class_0::FloatMemRead       799718      3.80%     99.10% # Class of committed instruction
system.switch_cpus.commit.op_class_0::FloatMemWrite       190272      0.90%    100.00% # Class of committed instruction
system.switch_cpus.commit.op_class_0::IprAccess            0      0.00%    100.00% # Class of committed instruction
system.switch_cpus.commit.op_class_0::InstPrefetch            0      0.00%    100.00% # Class of committed instruction
system.switch_cpus.commit.op_class_0::total     21054959                       # Class of committed instruction
system.switch_cpus.commit.refs                3527999                       # Number of memory references committed
system.switch_cpus.commit.swp_count                 0                       # Number of s/w prefetches committed
system.switch_cpus.commit.vec_insts                 0                       # Number of committed Vector instructions.
system.switch_cpus.committedInsts            10000000                       # Number of Instructions Simulated
system.switch_cpus.committedOps              21054959                       # Number of Ops (including micro ops) Simulated
system.switch_cpus.cpi                       1.581422                       # CPI: Cycles Per Instruction
system.switch_cpus.cpi_total                 1.581422                       # CPI: Total CPI of All Threads
system.switch_cpus.decode.BlockedCycles       3553908                       # Number of cycles decode is blocked
system.switch_cpus.decode.DecodedInsts       28177630                       # Number of instructions handled by decode
system.switch_cpus.decode.IdleCycles          6708071                       # Number of cycles decode is idle
system.switch_cpus.decode.RunCycles           3731128                       # Number of cycles decode is running
system.switch_cpus.decode.SquashCycles         149483                       # Number of cycles decode is squashing
system.switch_cpus.decode.UnblockCycles        478654                       # Number of cycles decode is unblocking
system.switch_cpus.dtb.rdAccesses             2594464                       # TLB accesses on read requests
system.switch_cpus.dtb.rdMisses                  2363                       # TLB misses on read requests
system.switch_cpus.dtb.wrAccesses             1403234                       # TLB accesses on write requests
system.switch_cpus.dtb.wrMisses                  1618                       # TLB misses on write requests
system.switch_cpus.fetch.Branches             3453481                       # Number of branches that fetch encountered
system.switch_cpus.fetch.CacheLines           1920174                       # Number of cache lines fetched
system.switch_cpus.fetch.Cycles               7293439                       # Number of cycles fetch has run and was not squashing or blocked
system.switch_cpus.fetch.IcacheSquashes         73015                       # Number of outstanding Icache misses that were squashed
system.switch_cpus.fetch.IcacheWaitRetryStallCycles          318                       # Number of stall cycles due to full MSHR
system.switch_cpus.fetch.Insts               13918092                       # Number of instructions fetch has processed
system.switch_cpus.fetch.MiscStallCycles         1483                       # Number of cycles fetch has spent waiting on interrupts, or bad addresses, or out of MSHRs
system.switch_cpus.fetch.PendingQuiesceStallCycles            7                       # Number of stall cycles due to pending quiesce instructions
system.switch_cpus.fetch.PendingTrapStallCycles         8865                       # Number of stall cycles due to pending traps
system.switch_cpus.fetch.SquashCycles          298966                       # Number of cycles fetch has spent squashing
system.switch_cpus.fetch.branchRate          0.218378                       # Number of branch fetches per cycle
system.switch_cpus.fetch.icacheStallCycles      7167651                       # Number of cycles fetch is stalled on an Icache miss
system.switch_cpus.fetch.predictedBranches      1888100                       # Number of branches that fetch has predicted taken
system.switch_cpus.fetch.rate                0.880100                       # Number of inst fetches per cycle
system.switch_cpus.fetch.rateDist::samples     14621246                       # Number of instructions fetched each cycle (Total)
system.switch_cpus.fetch.rateDist::mean      2.030679                       # Number of instructions fetched each cycle (Total)
system.switch_cpus.fetch.rateDist::stdev     3.250108                       # Number of instructions fetched each cycle (Total)
system.switch_cpus.fetch.rateDist::underflows            0      0.00%      0.00% # Number of instructions fetched each cycle (Total)
system.switch_cpus.fetch.rateDist::0          9982627     68.27%     68.27% # Number of instructions fetched each cycle (Total)
system.switch_cpus.fetch.rateDist::1           258739      1.77%     70.04% # Number of instructions fetched each cycle (Total)
system.switch_cpus.fetch.rateDist::2           206029      1.41%     71.45% # Number of instructions fetched each cycle (Total)
system.switch_cpus.fetch.rateDist::3           360741      2.47%     73.92% # Number of instructions fetched each cycle (Total)
system.switch_cpus.fetch.rateDist::4           179333      1.23%     75.15% # Number of instructions fetched each cycle (Total)
system.switch_cpus.fetch.rateDist::5           353372      2.42%     77.56% # Number of instructions fetched each cycle (Total)
system.switch_cpus.fetch.rateDist::6           300983      2.06%     79.62% # Number of instructions fetched each cycle (Total)
system.switch_cpus.fetch.rateDist::7           187422      1.28%     80.90% # Number of instructions fetched each cycle (Total)
system.switch_cpus.fetch.rateDist::8          2792000     19.10%    100.00% # Number of instructions fetched each cycle (Total)
system.switch_cpus.fetch.rateDist::overflows            0      0.00%    100.00% # Number of instructions fetched each cycle (Total)
system.switch_cpus.fetch.rateDist::min_value            0                       # Number of instructions fetched each cycle (Total)
system.switch_cpus.fetch.rateDist::max_value            8                       # Number of instructions fetched each cycle (Total)
system.switch_cpus.fetch.rateDist::total     14621246                       # Number of instructions fetched each cycle (Total)
system.switch_cpus.fp_regfile_reads           8356508                       # number of floating regfile reads
system.switch_cpus.fp_regfile_writes          4863676                       # number of floating regfile writes
system.switch_cpus.idleCycles                 1192970                       # Total number of cycles that the CPU has spent unscheduled due to idling
system.switch_cpus.iew.branchMispredicts       177750                       # Number of branch mispredicts detected at execute
system.switch_cpus.iew.exec_branches          2640702                       # Number of branches executed
system.switch_cpus.iew.exec_nop                     0                       # number of nop insts executed
system.switch_cpus.iew.exec_rate             1.532330                       # Inst execution rate
system.switch_cpus.iew.exec_refs              4011762                       # number of memory reference insts executed
system.switch_cpus.iew.exec_stores            1401696                       # Number of stores executed
system.switch_cpus.iew.exec_swp                     0                       # number of swp insts executed
system.switch_cpus.iew.iewBlockCycles         1579672                       # Number of cycles IEW is blocking
system.switch_cpus.iew.iewDispLoadInsts       2885915                       # Number of dispatched load instructions
system.switch_cpus.iew.iewDispNonSpecInsts         1334                       # Number of dispatched non-speculative instructions
system.switch_cpus.iew.iewDispSquashedInsts        10034                       # Number of squashed instructions skipped by dispatch
system.switch_cpus.iew.iewDispStoreInsts      1615245                       # Number of dispatched store instructions
system.switch_cpus.iew.iewDispatchedInsts     26670212                       # Number of instructions dispatched to IQ
system.switch_cpus.iew.iewExecLoadInsts       2610066                       # Number of load instructions executed
system.switch_cpus.iew.iewExecSquashedInsts       259144                       # Number of squashed instructions skipped in execute
system.switch_cpus.iew.iewExecutedInsts      24232600                       # Number of executed instructions
system.switch_cpus.iew.iewIQFullEvents          25246                       # Number of times the IQ has become full, causing a stall
system.switch_cpus.iew.iewIdleCycles                0                       # Number of cycles IEW is idle
system.switch_cpus.iew.iewLSQFullEvents         15978                       # Number of times the LSQ has become full, causing a stall
system.switch_cpus.iew.iewSquashCycles         149483                       # Number of cycles IEW is squashing
system.switch_cpus.iew.iewUnblockCycles         53442                       # Number of cycles IEW is unblocking
system.switch_cpus.iew.lsq.thread0.blockedLoads            0                       # Number of blocked loads due to partial load-store forwarding
system.switch_cpus.iew.lsq.thread0.cacheBlocked         5925                       # Number of times an access to memory failed due to the cache being blocked
system.switch_cpus.iew.lsq.thread0.forwLoads       188604                       # Number of loads that had data forwarded from stores
system.switch_cpus.iew.lsq.thread0.ignoredResponses          350                       # Number of memory responses ignored because the instruction is squashed
system.switch_cpus.iew.lsq.thread0.invAddrLoads            0                       # Number of loads ignored due to an invalid address
system.switch_cpus.iew.lsq.thread0.invAddrSwpfs            0                       # Number of software prefetches ignored due to an invalid address
system.switch_cpus.iew.lsq.thread0.memOrderViolation          318                       # Number of memory ordering violations
system.switch_cpus.iew.lsq.thread0.rescheduledLoads         1765                       # Number of loads that were rescheduled
system.switch_cpus.iew.lsq.thread0.squashedLoads       691668                       # Number of loads squashed
system.switch_cpus.iew.lsq.thread0.squashedStores       281474                       # Number of stores squashed
system.switch_cpus.iew.memOrderViolationEvents          318                       # Number of memory order violations
system.switch_cpus.iew.predictedNotTakenIncorrect       133511                       # Number of branches that were predicted not taken incorrectly
system.switch_cpus.iew.predictedTakenIncorrect        44239                       # Number of branches that were predicted taken incorrectly
system.switch_cpus.iew.wb_consumers          28283329                       # num instructions consuming a value
system.switch_cpus.iew.wb_count              24086493                       # cumulative count of insts written-back
system.switch_cpus.iew.wb_fanout             0.587015                       # average fanout of values written-back
system.switch_cpus.iew.wb_producers          16602749                       # num instructions producing a value
system.switch_cpus.iew.wb_rate               1.523091                       # insts written-back per cycle
system.switch_cpus.iew.wb_sent               24133993                       # cumulative count of insts sent to commit
system.switch_cpus.int_regfile_reads         27528067                       # number of integer regfile reads
system.switch_cpus.int_regfile_writes        14905296                       # number of integer regfile writes
system.switch_cpus.ipc                       0.632342                       # IPC: Instructions Per Cycle
system.switch_cpus.ipc_total                 0.632342                       # IPC: Total IPC of All Threads
system.switch_cpus.iq.FU_type_0::No_OpClass       633493      2.59%      2.59% # Type of FU issued
system.switch_cpus.iq.FU_type_0::IntAlu      16546914     67.56%     70.15% # Type of FU issued
system.switch_cpus.iq.FU_type_0::IntMult        50646      0.21%     70.35% # Type of FU issued
system.switch_cpus.iq.FU_type_0::IntDiv          2420      0.01%     70.36% # Type of FU issued
system.switch_cpus.iq.FU_type_0::FloatAdd       788832      3.22%     73.59% # Type of FU issued
system.switch_cpus.iq.FU_type_0::FloatCmp            0      0.00%     73.59% # Type of FU issued
system.switch_cpus.iq.FU_type_0::FloatCvt          848      0.00%     73.59% # Type of FU issued
system.switch_cpus.iq.FU_type_0::FloatMult            0      0.00%     73.59% # Type of FU issued
system.switch_cpus.iq.FU_type_0::FloatMultAcc            0      0.00%     73.59% # Type of FU issued
system.switch_cpus.iq.FU_type_0::FloatDiv            0      0.00%     73.59% # Type of FU issued
system.switch_cpus.iq.FU_type_0::FloatMisc            0      0.00%     73.59% # Type of FU issued
system.switch_cpus.iq.FU_type_0::FloatSqrt            0      0.00%     73.59% # Type of FU issued
system.switch_cpus.iq.FU_type_0::SimdAdd           67      0.00%     73.59% # Type of FU issued
system.switch_cpus.iq.FU_type_0::SimdAddAcc            0      0.00%     73.59% # Type of FU issued
system.switch_cpus.iq.FU_type_0::SimdAlu       294887      1.20%     74.79% # Type of FU issued
system.switch_cpus.iq.FU_type_0::SimdCmp         4994      0.02%     74.81% # Type of FU issued
system.switch_cpus.iq.FU_type_0::SimdCvt        24000      0.10%     74.91% # Type of FU issued
system.switch_cpus.iq.FU_type_0::SimdMisc       281800      1.15%     76.06% # Type of FU issued
system.switch_cpus.iq.FU_type_0::SimdMult            0      0.00%     76.06% # Type of FU issued
system.switch_cpus.iq.FU_type_0::SimdMultAcc            0      0.00%     76.06% # Type of FU issued
system.switch_cpus.iq.FU_type_0::SimdShift           52      0.00%     76.06% # Type of FU issued
system.switch_cpus.iq.FU_type_0::SimdShiftAcc            0      0.00%     76.06% # Type of FU issued
system.switch_cpus.iq.FU_type_0::SimdDiv            0      0.00%     76.06% # Type of FU issued
system.switch_cpus.iq.FU_type_0::SimdSqrt            0      0.00%     76.06% # Type of FU issued
system.switch_cpus.iq.FU_type_0::SimdFloatAdd       740344      3.02%     79.08% # Type of FU issued
system.switch_cpus.iq.FU_type_0::SimdFloatAlu            0      0.00%     79.08% # Type of FU issued
system.switch_cpus.iq.FU_type_0::SimdFloatCmp            0      0.00%     79.08% # Type of FU issued
system.switch_cpus.iq.FU_type_0::SimdFloatCvt       539266      2.20%     81.29% # Type of FU issued
system.switch_cpus.iq.FU_type_0::SimdFloatDiv        49056      0.20%     81.49% # Type of FU issued
system.switch_cpus.iq.FU_type_0::SimdFloatMisc            0      0.00%     81.49% # Type of FU issued
system.switch_cpus.iq.FU_type_0::SimdFloatMult       468909      1.91%     83.40% # Type of FU issued
system.switch_cpus.iq.FU_type_0::SimdFloatMultAcc            0      0.00%     83.40% # Type of FU issued
system.switch_cpus.iq.FU_type_0::SimdFloatSqrt            0      0.00%     83.40% # Type of FU issued
system.switch_cpus.iq.FU_type_0::SimdReduceAdd            0      0.00%     83.40% # Type of FU issued
system.switch_cpus.iq.FU_type_0::SimdReduceAlu            0      0.00%     83.40% # Type of FU issued
system.switch_cpus.iq.FU_type_0::SimdReduceCmp            0      0.00%     83.40% # Type of FU issued
system.switch_cpus.iq.FU_type_0::SimdFloatReduceAdd            0      0.00%     83.40% # Type of FU issued
system.switch_cpus.iq.FU_type_0::SimdFloatReduceCmp            0      0.00%     83.40% # Type of FU issued
system.switch_cpus.iq.FU_type_0::SimdAes            0      0.00%     83.40% # Type of FU issued
system.switch_cpus.iq.FU_type_0::SimdAesMix            0      0.00%     83.40% # Type of FU issued
system.switch_cpus.iq.FU_type_0::SimdSha1Hash            0      0.00%     83.40% # Type of FU issued
system.switch_cpus.iq.FU_type_0::SimdSha1Hash2            0      0.00%     83.40% # Type of FU issued
system.switch_cpus.iq.FU_type_0::SimdSha256Hash            0      0.00%     83.40% # Type of FU issued
system.switch_cpus.iq.FU_type_0::SimdSha256Hash2            0      0.00%     83.40% # Type of FU issued
system.switch_cpus.iq.FU_type_0::SimdShaSigma2            0      0.00%     83.40% # Type of FU issued
system.switch_cpus.iq.FU_type_0::SimdShaSigma3            0      0.00%     83.40% # Type of FU issued
system.switch_cpus.iq.FU_type_0::SimdPredAlu            0      0.00%     83.40% # Type of FU issued
system.switch_cpus.iq.FU_type_0::MemRead      1685417      6.88%     90.28% # Type of FU issued
system.switch_cpus.iq.FU_type_0::MemWrite      1214113      4.96%     95.24% # Type of FU issued
system.switch_cpus.iq.FU_type_0::FloatMemRead       964397      3.94%     99.18% # Type of FU issued
system.switch_cpus.iq.FU_type_0::FloatMemWrite       201294      0.82%    100.00% # Type of FU issued
system.switch_cpus.iq.FU_type_0::IprAccess            0      0.00%    100.00% # Type of FU issued
system.switch_cpus.iq.FU_type_0::InstPrefetch            0      0.00%    100.00% # Type of FU issued
system.switch_cpus.iq.FU_type_0::total       24491749                       # Type of FU issued
system.switch_cpus.iq.fp_alu_accesses         5495490                       # Number of floating point alu accesses
system.switch_cpus.iq.fp_inst_queue_reads     10977430                       # Number of floating instruction queue reads
system.switch_cpus.iq.fp_inst_queue_wakeup_accesses      5377047                       # Number of floating instruction queue wakeup accesses
system.switch_cpus.iq.fp_inst_queue_writes      7485764                       # Number of floating instruction queue writes
system.switch_cpus.iq.fu_busy_cnt              200805                       # FU busy when requested
system.switch_cpus.iq.fu_busy_rate           0.008199                       # FU busy rate (busy events/executed inst)
system.switch_cpus.iq.fu_full::No_OpClass            0      0.00%      0.00% # attempts to use FU when none available
system.switch_cpus.iq.fu_full::IntAlu          180508     89.89%     89.89% # attempts to use FU when none available
system.switch_cpus.iq.fu_full::IntMult              0      0.00%     89.89% # attempts to use FU when none available
system.switch_cpus.iq.fu_full::IntDiv               0      0.00%     89.89% # attempts to use FU when none available
system.switch_cpus.iq.fu_full::FloatAdd            37      0.02%     89.91% # attempts to use FU when none available
system.switch_cpus.iq.fu_full::FloatCmp             0      0.00%     89.91% # attempts to use FU when none available
system.switch_cpus.iq.fu_full::FloatCvt             0      0.00%     89.91% # attempts to use FU when none available
system.switch_cpus.iq.fu_full::FloatMult            0      0.00%     89.91% # attempts to use FU when none available
system.switch_cpus.iq.fu_full::FloatMultAcc            0      0.00%     89.91% # attempts to use FU when none available
system.switch_cpus.iq.fu_full::FloatDiv             0      0.00%     89.91% # attempts to use FU when none available
system.switch_cpus.iq.fu_full::FloatMisc            0      0.00%     89.91% # attempts to use FU when none available
system.switch_cpus.iq.fu_full::FloatSqrt            0      0.00%     89.91% # attempts to use FU when none available
system.switch_cpus.iq.fu_full::SimdAdd              0      0.00%     89.91% # attempts to use FU when none available
system.switch_cpus.iq.fu_full::SimdAddAcc            0      0.00%     89.91% # attempts to use FU when none available
system.switch_cpus.iq.fu_full::SimdAlu           3313      1.65%     91.56% # attempts to use FU when none available
system.switch_cpus.iq.fu_full::SimdCmp              0      0.00%     91.56% # attempts to use FU when none available
system.switch_cpus.iq.fu_full::SimdCvt           3967      1.98%     93.54% # attempts to use FU when none available
system.switch_cpus.iq.fu_full::SimdMisc          2670      1.33%     94.87% # attempts to use FU when none available
system.switch_cpus.iq.fu_full::SimdMult             0      0.00%     94.87% # attempts to use FU when none available
system.switch_cpus.iq.fu_full::SimdMultAcc            0      0.00%     94.87% # attempts to use FU when none available
system.switch_cpus.iq.fu_full::SimdShift            6      0.00%     94.87% # attempts to use FU when none available
system.switch_cpus.iq.fu_full::SimdShiftAcc            0      0.00%     94.87% # attempts to use FU when none available
system.switch_cpus.iq.fu_full::SimdDiv              0      0.00%     94.87% # attempts to use FU when none available
system.switch_cpus.iq.fu_full::SimdSqrt             0      0.00%     94.87% # attempts to use FU when none available
system.switch_cpus.iq.fu_full::SimdFloatAdd          601      0.30%     95.17% # attempts to use FU when none available
system.switch_cpus.iq.fu_full::SimdFloatAlu            0      0.00%     95.17% # attempts to use FU when none available
system.switch_cpus.iq.fu_full::SimdFloatCmp            0      0.00%     95.17% # attempts to use FU when none available
system.switch_cpus.iq.fu_full::SimdFloatCvt         1192      0.59%     95.76% # attempts to use FU when none available
system.switch_cpus.iq.fu_full::SimdFloatDiv          154      0.08%     95.84% # attempts to use FU when none available
system.switch_cpus.iq.fu_full::SimdFloatMisc            0      0.00%     95.84% # attempts to use FU when none available
system.switch_cpus.iq.fu_full::SimdFloatMult           37      0.02%     95.86% # attempts to use FU when none available
system.switch_cpus.iq.fu_full::SimdFloatMultAcc            0      0.00%     95.86% # attempts to use FU when none available
system.switch_cpus.iq.fu_full::SimdFloatSqrt            0      0.00%     95.86% # attempts to use FU when none available
system.switch_cpus.iq.fu_full::SimdReduceAdd            0      0.00%     95.86% # attempts to use FU when none available
system.switch_cpus.iq.fu_full::SimdReduceAlu            0      0.00%     95.86% # attempts to use FU when none available
system.switch_cpus.iq.fu_full::SimdReduceCmp            0      0.00%     95.86% # attempts to use FU when none available
system.switch_cpus.iq.fu_full::SimdFloatReduceAdd            0      0.00%     95.86% # attempts to use FU when none available
system.switch_cpus.iq.fu_full::SimdFloatReduceCmp            0      0.00%     95.86% # attempts to use FU when none available
system.switch_cpus.iq.fu_full::SimdAes              0      0.00%     95.86% # attempts to use FU when none available
system.switch_cpus.iq.fu_full::SimdAesMix            0      0.00%     95.86% # attempts to use FU when none available
system.switch_cpus.iq.fu_full::SimdSha1Hash            0      0.00%     95.86% # attempts to use FU when none available
system.switch_cpus.iq.fu_full::SimdSha1Hash2            0      0.00%     95.86% # attempts to use FU when none available
system.switch_cpus.iq.fu_full::SimdSha256Hash            0      0.00%     95.86% # attempts to use FU when none available
system.switch_cpus.iq.fu_full::SimdSha256Hash2            0      0.00%     95.86% # attempts to use FU when none available
system.switch_cpus.iq.fu_full::SimdShaSigma2            0      0.00%     95.86% # attempts to use FU when none available
system.switch_cpus.iq.fu_full::SimdShaSigma3            0      0.00%     95.86% # attempts to use FU when none available
system.switch_cpus.iq.fu_full::SimdPredAlu            0      0.00%     95.86% # attempts to use FU when none available
system.switch_cpus.iq.fu_full::MemRead           3875      1.93%     97.79% # attempts to use FU when none available
system.switch_cpus.iq.fu_full::MemWrite          2437      1.21%     99.00% # attempts to use FU when none available
system.switch_cpus.iq.fu_full::FloatMemRead         1966      0.98%     99.98% # attempts to use FU when none available
system.switch_cpus.iq.fu_full::FloatMemWrite           42      0.02%    100.00% # attempts to use FU when none available
system.switch_cpus.iq.fu_full::IprAccess            0      0.00%    100.00% # attempts to use FU when none available
system.switch_cpus.iq.fu_full::InstPrefetch            0      0.00%    100.00% # attempts to use FU when none available
system.switch_cpus.iq.int_alu_accesses       18563571                       # Number of integer alu accesses
system.switch_cpus.iq.int_inst_queue_reads     52847257                       # Number of integer instruction queue reads
system.switch_cpus.iq.int_inst_queue_wakeup_accesses     18709446                       # Number of integer instruction queue wakeup accesses
system.switch_cpus.iq.int_inst_queue_writes     24799878                       # Number of integer instruction queue writes
system.switch_cpus.iq.iqInstsAdded           26667023                       # Number of instructions added to the IQ (excludes non-spec)
system.switch_cpus.iq.iqInstsIssued          24491749                       # Number of instructions issued
system.switch_cpus.iq.iqNonSpecInstsAdded         3189                       # Number of non-speculative instructions added to the IQ
system.switch_cpus.iq.iqSquashedInstsExamined      5615154                       # Number of squashed instructions iterated over during squash; mainly for profiling
system.switch_cpus.iq.iqSquashedInstsIssued        19143                       # Number of squashed instructions issued
system.switch_cpus.iq.iqSquashedNonSpecRemoved         2824                       # Number of squashed non-spec instructions that were removed
system.switch_cpus.iq.iqSquashedOperandsExamined      8304080                       # Number of squashed operands that are examined and possibly removed from graph
system.switch_cpus.iq.issued_per_cycle::samples     14621246                       # Number of insts issued each cycle
system.switch_cpus.iq.issued_per_cycle::mean     1.675079                       # Number of insts issued each cycle
system.switch_cpus.iq.issued_per_cycle::stdev     2.171482                       # Number of insts issued each cycle
system.switch_cpus.iq.issued_per_cycle::underflows            0      0.00%      0.00% # Number of insts issued each cycle
system.switch_cpus.iq.issued_per_cycle::0      7326474     50.11%     50.11% # Number of insts issued each cycle
system.switch_cpus.iq.issued_per_cycle::1      1585592     10.84%     60.95% # Number of insts issued each cycle
system.switch_cpus.iq.issued_per_cycle::2      1386527      9.48%     70.44% # Number of insts issued each cycle
system.switch_cpus.iq.issued_per_cycle::3      1067439      7.30%     77.74% # Number of insts issued each cycle
system.switch_cpus.iq.issued_per_cycle::4      1352335      9.25%     86.99% # Number of insts issued each cycle
system.switch_cpus.iq.issued_per_cycle::5       654453      4.48%     91.46% # Number of insts issued each cycle
system.switch_cpus.iq.issued_per_cycle::6       703246      4.81%     96.27% # Number of insts issued each cycle
system.switch_cpus.iq.issued_per_cycle::7       331735      2.27%     98.54% # Number of insts issued each cycle
system.switch_cpus.iq.issued_per_cycle::8       213445      1.46%    100.00% # Number of insts issued each cycle
system.switch_cpus.iq.issued_per_cycle::overflows            0      0.00%    100.00% # Number of insts issued each cycle
system.switch_cpus.iq.issued_per_cycle::min_value            0                       # Number of insts issued each cycle
system.switch_cpus.iq.issued_per_cycle::max_value            8                       # Number of insts issued each cycle
system.switch_cpus.iq.issued_per_cycle::total     14621246                       # Number of insts issued each cycle
system.switch_cpus.iq.rate                   1.548717                       # Inst issue rate
system.switch_cpus.iq.vec_alu_accesses              0                       # Number of vector alu accesses
system.switch_cpus.iq.vec_inst_queue_reads            0                       # Number of vector instruction queue reads
system.switch_cpus.iq.vec_inst_queue_wakeup_accesses            0                       # Number of vector instruction queue wakeup accesses
system.switch_cpus.iq.vec_inst_queue_writes            0                       # Number of vector instruction queue writes
system.switch_cpus.itb.rdAccesses                   0                       # TLB accesses on read requests
system.switch_cpus.itb.rdMisses                     0                       # TLB misses on read requests
system.switch_cpus.itb.wrAccesses             1921584                       # TLB accesses on write requests
system.switch_cpus.itb.wrMisses                  1609                       # TLB misses on write requests
system.switch_cpus.memDep0.conflictingLoads       181772                       # Number of conflicting loads.
system.switch_cpus.memDep0.conflictingStores        41076                       # Number of conflicting stores.
system.switch_cpus.memDep0.insertedLoads      2885915                       # Number of loads inserted to the mem dependence unit.
system.switch_cpus.memDep0.insertedStores      1615245                       # Number of stores inserted to the mem dependence unit.
system.switch_cpus.misc_regfile_reads         9185275                       # number of misc regfile reads
system.switch_cpus.misc_regfile_writes            271                       # number of misc regfile writes
system.switch_cpus.numCycles                 15814216                       # number of cpu cycles simulated
system.switch_cpus.numWorkItemsCompleted            0                       # number of work items this cpu completed
system.switch_cpus.numWorkItemsStarted              0                       # number of work items this cpu started
system.switch_cpus.rename.BlockCycles         2520499                       # Number of cycles rename is blocking
system.switch_cpus.rename.CommittedMaps      22939769                       # Number of HB maps that are committed
system.switch_cpus.rename.IQFullEvents         522477                       # Number of times rename has blocked due to IQ full
system.switch_cpus.rename.IdleCycles          6898135                       # Number of cycles rename is idle
system.switch_cpus.rename.LQFullEvents           8994                       # Number of times rename has blocked due to LQ full
system.switch_cpus.rename.ROBFullEvents         64751                       # Number of times rename has blocked due to ROB full
system.switch_cpus.rename.RenameLookups      68019256                       # Number of register rename lookups that rename has made
system.switch_cpus.rename.RenamedInsts       27594896                       # Number of instructions processed by rename
system.switch_cpus.rename.RenamedOperands     29928097                       # Number of destination operands rename has renamed
system.switch_cpus.rename.RunCycles           3978903                       # Number of cycles rename is running
system.switch_cpus.rename.SQFullEvents         393984                       # Number of times rename has blocked due to SQ full
system.switch_cpus.rename.SquashCycles         149483                       # Number of cycles rename is squashing
system.switch_cpus.rename.UnblockCycles       1061737                       # Number of cycles rename is unblocking
system.switch_cpus.rename.UndoneMaps          6988214                       # Number of HB maps that are undone due to squashing
system.switch_cpus.rename.fp_rename_lookups     10134804                       # Number of floating rename lookups
system.switch_cpus.rename.int_rename_lookups     32277931                       # Number of integer rename lookups
system.switch_cpus.rename.serializeStallCycles        12488                       # count of cycles rename stalled for serializing inst
system.switch_cpus.rename.serializingInsts          440                       # count of serializing insts renamed
system.switch_cpus.rename.skidInsts           2108668                       # count of insts added to the skid buffer
system.switch_cpus.rename.tempSerializingInsts          389                       # count of temporary serializing insts renamed
system.switch_cpus.rob.rob_reads             39300718                       # The number of ROB reads
system.switch_cpus.rob.rob_writes            54136439                       # The number of ROB writes
system.switch_cpus.timesIdled                  114044                       # Number of times that the entire CPU went into an idle state and unscheduled itself
system.tol2bus.snoop_filter.hit_multi_requests            4                       # Number of requests hitting in the snoop filter with multiple (>1) holders of the requested data.
system.tol2bus.snoop_filter.hit_multi_snoops            0                       # Number of snoops hitting in the snoop filter with multiple (>1) holders of the requested data.
system.tol2bus.snoop_filter.hit_single_requests       462550                       # Number of requests hitting in the snoop filter with a single holder of the requested data.
system.tol2bus.snoop_filter.hit_single_snoops        12445                       # Number of snoops hitting in the snoop filter with a single holder of the requested data.
system.tol2bus.snoop_filter.tot_requests       925228                       # Total number of requests made to the snoop filter.
system.tol2bus.snoop_filter.tot_snoops          12445                       # Total number of snoops made to the snoop filter.
system.membus.trans_dist::ReadResp              37808                       # Transaction distribution
system.membus.trans_dist::WritebackDirty         7516                       # Transaction distribution
system.membus.trans_dist::CleanEvict            36224                       # Transaction distribution
system.membus.trans_dist::ReadExReq              6237                       # Transaction distribution
system.membus.trans_dist::ReadExResp             6237                       # Transaction distribution
system.membus.trans_dist::ReadSharedReq         37808                       # Transaction distribution
system.membus.pkt_count_system.l2.mem_side::system.mem_ctrls.port       131830                       # Packet count per connected master and slave (bytes)
system.membus.pkt_count_system.l2.mem_side::total       131830                       # Packet count per connected master and slave (bytes)
system.membus.pkt_count::total                 131830                       # Packet count per connected master and slave (bytes)
system.membus.pkt_size_system.l2.mem_side::system.mem_ctrls.port      3299904                       # Cumulative packet size per connected master and slave (bytes)
system.membus.pkt_size_system.l2.mem_side::total      3299904                       # Cumulative packet size per connected master and slave (bytes)
system.membus.pkt_size::total                 3299904                       # Cumulative packet size per connected master and slave (bytes)
system.membus.snoops                                0                       # Total snoops (count)
system.membus.snoopTraffic                          0                       # Total snoop traffic (bytes)
system.membus.snoop_fanout::samples             44045                       # Request fanout histogram
system.membus.snoop_fanout::mean                    0                       # Request fanout histogram
system.membus.snoop_fanout::stdev                   0                       # Request fanout histogram
system.membus.snoop_fanout::underflows              0      0.00%      0.00% # Request fanout histogram
system.membus.snoop_fanout::0                   44045    100.00%    100.00% # Request fanout histogram
system.membus.snoop_fanout::1                       0      0.00%    100.00% # Request fanout histogram
system.membus.snoop_fanout::overflows               0      0.00%    100.00% # Request fanout histogram
system.membus.snoop_fanout::min_value               0                       # Request fanout histogram
system.membus.snoop_fanout::max_value               0                       # Request fanout histogram
system.membus.snoop_fanout::total               44045                       # Request fanout histogram
system.membus.reqLayer2.occupancy           129283500                       # Layer occupancy (ticks)
system.membus.reqLayer2.utilization               1.6                       # Layer utilization (%)
system.membus.respLayer1.occupancy          233861250                       # Layer occupancy (ticks)
system.membus.respLayer1.utilization              3.0                       # Layer utilization (%)
system.membus.power_state.pwrStateResidencyTicks::UNDEFINED   7907118500                       # Cumulative time (in ticks) in various power states
system.switch_cpus.dtb.walker.power_state.pwrStateResidencyTicks::UNDEFINED   7907118500                       # Cumulative time (in ticks) in various power states
system.switch_cpus.itb.walker.power_state.pwrStateResidencyTicks::UNDEFINED   7907118500                       # Cumulative time (in ticks) in various power states
system.switch_cpus.power_state.pwrStateResidencyTicks::OFF   7907118500                       # Cumulative time (in ticks) in various power states
system.tol2bus.trans_dist::ReadResp            440717                       # Transaction distribution
system.tol2bus.trans_dist::WritebackDirty        41512                       # Transaction distribution
system.tol2bus.trans_dist::WritebackClean       260917                       # Transaction distribution
system.tol2bus.trans_dist::CleanEvict          212484                       # Transaction distribution
system.tol2bus.trans_dist::ReadExReq            21961                       # Transaction distribution
system.tol2bus.trans_dist::ReadExResp           21961                       # Transaction distribution
system.tol2bus.trans_dist::ReadCleanReq        260981                       # Transaction distribution
system.tol2bus.trans_dist::ReadSharedReq       179736                       # Transaction distribution
system.tol2bus.pkt_count_system.cpu.icache.mem_side::system.l2.cpu_side       782878                       # Packet count per connected master and slave (bytes)
system.tol2bus.pkt_count_system.cpu.dcache.mem_side::system.l2.cpu_side       605027                       # Packet count per connected master and slave (bytes)
system.tol2bus.pkt_count::total               1387905                       # Packet count per connected master and slave (bytes)
system.tol2bus.pkt_size_system.cpu.icache.mem_side::system.l2.cpu_side     33401408                       # Cumulative packet size per connected master and slave (bytes)
system.tol2bus.pkt_size_system.cpu.dcache.mem_side::system.l2.cpu_side     15084352                       # Cumulative packet size per connected master and slave (bytes)
system.tol2bus.pkt_size::total               48485760                       # Cumulative packet size per connected master and slave (bytes)
system.tol2bus.snoops                           52364                       # Total snoops (count)
system.tol2bus.snoopTraffic                    481088                       # Total snoop traffic (bytes)
system.tol2bus.snoop_fanout::samples           515041                       # Request fanout histogram
system.tol2bus.snoop_fanout::mean            0.024171                       # Request fanout histogram
system.tol2bus.snoop_fanout::stdev           0.153580                       # Request fanout histogram
system.tol2bus.snoop_fanout::underflows             0      0.00%      0.00% # Request fanout histogram
system.tol2bus.snoop_fanout::0                 502592     97.58%     97.58% # Request fanout histogram
system.tol2bus.snoop_fanout::1                  12449      2.42%    100.00% # Request fanout histogram
system.tol2bus.snoop_fanout::2                      0      0.00%    100.00% # Request fanout histogram
system.tol2bus.snoop_fanout::3                      0      0.00%    100.00% # Request fanout histogram
system.tol2bus.snoop_fanout::4                      0      0.00%    100.00% # Request fanout histogram
system.tol2bus.snoop_fanout::overflows              0      0.00%    100.00% # Request fanout histogram
system.tol2bus.snoop_fanout::min_value              0                       # Request fanout histogram
system.tol2bus.snoop_fanout::max_value              1                       # Request fanout histogram
system.tol2bus.snoop_fanout::total             515041                       # Request fanout histogram
system.tol2bus.reqLayer0.occupancy          757525500                       # Layer occupancy (ticks)
system.tol2bus.reqLayer0.utilization              9.6                       # Layer utilization (%)
system.tol2bus.respLayer1.occupancy         302646794                       # Layer occupancy (ticks)
system.tol2bus.respLayer1.utilization             3.8                       # Layer utilization (%)
system.tol2bus.respLayer0.occupancy         391906123                       # Layer occupancy (ticks)
system.tol2bus.respLayer0.utilization             5.0                       # Layer utilization (%)
system.tol2bus.power_state.pwrStateResidencyTicks::UNDEFINED   7907118500                       # Cumulative time (in ticks) in various power states
system.voltage_domain.voltage                       1                       # Voltage in Volts
system.clk_domain.clock                          1000                       # Clock period in ticks
system.l2.demand_hits::.switch_cpus.inst       252481                       # number of demand (read+write) hits
system.l2.demand_hits::.switch_cpus.data       166149                       # number of demand (read+write) hits
system.l2.demand_hits::total                   418630                       # number of demand (read+write) hits
system.l2.overall_hits::.switch_cpus.inst       252481                       # number of overall hits
system.l2.overall_hits::.switch_cpus.data       166149                       # number of overall hits
system.l2.overall_hits::total                  418630                       # number of overall hits
system.l2.demand_misses::.cpu.inst                  2                       # number of demand (read+write) misses
system.l2.demand_misses::.cpu.data                  1                       # number of demand (read+write) misses
system.l2.demand_misses::.switch_cpus.inst         8497                       # number of demand (read+write) misses
system.l2.demand_misses::.switch_cpus.data        35547                       # number of demand (read+write) misses
system.l2.demand_misses::total                  44047                       # number of demand (read+write) misses
system.l2.overall_misses::.cpu.inst                 2                       # number of overall misses
system.l2.overall_misses::.cpu.data                 1                       # number of overall misses
system.l2.overall_misses::.switch_cpus.inst         8497                       # number of overall misses
system.l2.overall_misses::.switch_cpus.data        35547                       # number of overall misses
system.l2.overall_misses::total                 44047                       # number of overall misses
system.l2.demand_miss_latency::.switch_cpus.inst    705581000                       # number of demand (read+write) miss cycles
system.l2.demand_miss_latency::.switch_cpus.data   2755697500                       # number of demand (read+write) miss cycles
system.l2.demand_miss_latency::total       3461278500                       # number of demand (read+write) miss cycles
system.l2.overall_miss_latency::.switch_cpus.inst    705581000                       # number of overall miss cycles
system.l2.overall_miss_latency::.switch_cpus.data   2755697500                       # number of overall miss cycles
system.l2.overall_miss_latency::total      3461278500                       # number of overall miss cycles
system.l2.demand_accesses::.cpu.inst                2                       # number of demand (read+write) accesses
system.l2.demand_accesses::.cpu.data                1                       # number of demand (read+write) accesses
system.l2.demand_accesses::.switch_cpus.inst       260978                       # number of demand (read+write) accesses
system.l2.demand_accesses::.switch_cpus.data       201696                       # number of demand (read+write) accesses
system.l2.demand_accesses::total               462677                       # number of demand (read+write) accesses
system.l2.overall_accesses::.cpu.inst               2                       # number of overall (read+write) accesses
system.l2.overall_accesses::.cpu.data               1                       # number of overall (read+write) accesses
system.l2.overall_accesses::.switch_cpus.inst       260978                       # number of overall (read+write) accesses
system.l2.overall_accesses::.switch_cpus.data       201696                       # number of overall (read+write) accesses
system.l2.overall_accesses::total              462677                       # number of overall (read+write) accesses
system.l2.demand_miss_rate::.cpu.inst               1                       # miss rate for demand accesses
system.l2.demand_miss_rate::.cpu.data               1                       # miss rate for demand accesses
system.l2.demand_miss_rate::.switch_cpus.inst     0.032558                       # miss rate for demand accesses
system.l2.demand_miss_rate::.switch_cpus.data     0.176240                       # miss rate for demand accesses
system.l2.demand_miss_rate::total            0.095200                       # miss rate for demand accesses
system.l2.overall_miss_rate::.cpu.inst              1                       # miss rate for overall accesses
system.l2.overall_miss_rate::.cpu.data              1                       # miss rate for overall accesses
system.l2.overall_miss_rate::.switch_cpus.inst     0.032558                       # miss rate for overall accesses
system.l2.overall_miss_rate::.switch_cpus.data     0.176240                       # miss rate for overall accesses
system.l2.overall_miss_rate::total           0.095200                       # miss rate for overall accesses
system.l2.demand_avg_miss_latency::.switch_cpus.inst 83038.837237                       # average overall miss latency
system.l2.demand_avg_miss_latency::.switch_cpus.data 77522.646074                       # average overall miss latency
system.l2.demand_avg_miss_latency::total 78581.481145                       # average overall miss latency
system.l2.overall_avg_miss_latency::.switch_cpus.inst 83038.837237                       # average overall miss latency
system.l2.overall_avg_miss_latency::.switch_cpus.data 77522.646074                       # average overall miss latency
system.l2.overall_avg_miss_latency::total 78581.481145                       # average overall miss latency
system.l2.blocked_cycles::no_mshrs                  0                       # number of cycles access was blocked
system.l2.blocked_cycles::no_targets                0                       # number of cycles access was blocked
system.l2.blocked::no_mshrs                         0                       # number of cycles access was blocked
system.l2.blocked::no_targets                       0                       # number of cycles access was blocked
system.l2.avg_blocked_cycles::no_mshrs            nan                       # average number of cycles each access was blocked
system.l2.avg_blocked_cycles::no_targets          nan                       # average number of cycles each access was blocked
system.l2.writebacks::.writebacks                7516                       # number of writebacks
system.l2.writebacks::total                      7516                       # number of writebacks
system.l2.demand_mshr_hits::.switch_cpus.inst            1                       # number of demand (read+write) MSHR hits
system.l2.demand_mshr_hits::.switch_cpus.data            1                       # number of demand (read+write) MSHR hits
system.l2.demand_mshr_hits::total                   2                       # number of demand (read+write) MSHR hits
system.l2.overall_mshr_hits::.switch_cpus.inst            1                       # number of overall MSHR hits
system.l2.overall_mshr_hits::.switch_cpus.data            1                       # number of overall MSHR hits
system.l2.overall_mshr_hits::total                  2                       # number of overall MSHR hits
system.l2.demand_mshr_misses::.switch_cpus.inst         8496                       # number of demand (read+write) MSHR misses
system.l2.demand_mshr_misses::.switch_cpus.data        35546                       # number of demand (read+write) MSHR misses
system.l2.demand_mshr_misses::total             44042                       # number of demand (read+write) MSHR misses
system.l2.overall_mshr_misses::.switch_cpus.inst         8496                       # number of overall MSHR misses
system.l2.overall_mshr_misses::.switch_cpus.data        35546                       # number of overall MSHR misses
system.l2.overall_mshr_misses::total            44042                       # number of overall MSHR misses
system.l2.demand_mshr_miss_latency::.switch_cpus.inst    620524500                       # number of demand (read+write) MSHR miss cycles
system.l2.demand_mshr_miss_latency::.switch_cpus.data   2400177000                       # number of demand (read+write) MSHR miss cycles
system.l2.demand_mshr_miss_latency::total   3020701500                       # number of demand (read+write) MSHR miss cycles
system.l2.overall_mshr_miss_latency::.switch_cpus.inst    620524500                       # number of overall MSHR miss cycles
system.l2.overall_mshr_miss_latency::.switch_cpus.data   2400177000                       # number of overall MSHR miss cycles
system.l2.overall_mshr_miss_latency::total   3020701500                       # number of overall MSHR miss cycles
system.l2.demand_mshr_miss_rate::.switch_cpus.inst     0.032554                       # mshr miss rate for demand accesses
system.l2.demand_mshr_miss_rate::.switch_cpus.data     0.176236                       # mshr miss rate for demand accesses
system.l2.demand_mshr_miss_rate::total       0.095190                       # mshr miss rate for demand accesses
system.l2.overall_mshr_miss_rate::.switch_cpus.inst     0.032554                       # mshr miss rate for overall accesses
system.l2.overall_mshr_miss_rate::.switch_cpus.data     0.176236                       # mshr miss rate for overall accesses
system.l2.overall_mshr_miss_rate::total      0.095190                       # mshr miss rate for overall accesses
system.l2.demand_avg_mshr_miss_latency::.switch_cpus.inst 73037.252825                       # average overall mshr miss latency
system.l2.demand_avg_mshr_miss_latency::.switch_cpus.data 67523.124965                       # average overall mshr miss latency
system.l2.demand_avg_mshr_miss_latency::total 68586.837564                       # average overall mshr miss latency
system.l2.overall_avg_mshr_miss_latency::.switch_cpus.inst 73037.252825                       # average overall mshr miss latency
system.l2.overall_avg_mshr_miss_latency::.switch_cpus.data 67523.124965                       # average overall mshr miss latency
system.l2.overall_avg_mshr_miss_latency::total 68586.837564                       # average overall mshr miss latency
system.l2.replacements                          52363                       # number of replacements
system.l2.WritebackDirty_hits::.writebacks        33996                       # number of WritebackDirty hits
system.l2.WritebackDirty_hits::total            33996                       # number of WritebackDirty hits
system.l2.WritebackDirty_accesses::.writebacks        33996                       # number of WritebackDirty accesses(hits+misses)
system.l2.WritebackDirty_accesses::total        33996                       # number of WritebackDirty accesses(hits+misses)
system.l2.WritebackClean_hits::.writebacks       260915                       # number of WritebackClean hits
system.l2.WritebackClean_hits::total           260915                       # number of WritebackClean hits
system.l2.WritebackClean_accesses::.writebacks       260915                       # number of WritebackClean accesses(hits+misses)
system.l2.WritebackClean_accesses::total       260915                       # number of WritebackClean accesses(hits+misses)
system.l2.CleanEvict_mshr_misses::.writebacks         3821                       # number of CleanEvict MSHR misses
system.l2.CleanEvict_mshr_misses::total          3821                       # number of CleanEvict MSHR misses
system.l2.CleanEvict_mshr_miss_rate::.writebacks          inf                       # mshr miss rate for CleanEvict accesses
system.l2.CleanEvict_mshr_miss_rate::total          inf                       # mshr miss rate for CleanEvict accesses
system.l2.ReadExReq_hits::.switch_cpus.data        15724                       # number of ReadExReq hits
system.l2.ReadExReq_hits::total                 15724                       # number of ReadExReq hits
system.l2.ReadExReq_misses::.cpu.data               1                       # number of ReadExReq misses
system.l2.ReadExReq_misses::.switch_cpus.data         6236                       # number of ReadExReq misses
system.l2.ReadExReq_misses::total                6237                       # number of ReadExReq misses
system.l2.ReadExReq_miss_latency::.switch_cpus.data    377807000                       # number of ReadExReq miss cycles
system.l2.ReadExReq_miss_latency::total     377807000                       # number of ReadExReq miss cycles
system.l2.ReadExReq_accesses::.cpu.data             1                       # number of ReadExReq accesses(hits+misses)
system.l2.ReadExReq_accesses::.switch_cpus.data        21960                       # number of ReadExReq accesses(hits+misses)
system.l2.ReadExReq_accesses::total             21961                       # number of ReadExReq accesses(hits+misses)
system.l2.ReadExReq_miss_rate::.cpu.data            1                       # miss rate for ReadExReq accesses
system.l2.ReadExReq_miss_rate::.switch_cpus.data     0.283971                       # miss rate for ReadExReq accesses
system.l2.ReadExReq_miss_rate::total         0.284003                       # miss rate for ReadExReq accesses
system.l2.ReadExReq_avg_miss_latency::.switch_cpus.data 60584.830019                       # average ReadExReq miss latency
system.l2.ReadExReq_avg_miss_latency::total 60575.116242                       # average ReadExReq miss latency
system.l2.ReadExReq_mshr_misses::.switch_cpus.data         6236                       # number of ReadExReq MSHR misses
system.l2.ReadExReq_mshr_misses::total           6236                       # number of ReadExReq MSHR misses
system.l2.ReadExReq_mshr_miss_latency::.switch_cpus.data    315447000                       # number of ReadExReq MSHR miss cycles
system.l2.ReadExReq_mshr_miss_latency::total    315447000                       # number of ReadExReq MSHR miss cycles
system.l2.ReadExReq_mshr_miss_rate::.switch_cpus.data     0.283971                       # mshr miss rate for ReadExReq accesses
system.l2.ReadExReq_mshr_miss_rate::total     0.283958                       # mshr miss rate for ReadExReq accesses
system.l2.ReadExReq_avg_mshr_miss_latency::.switch_cpus.data 50584.830019                       # average ReadExReq mshr miss latency
system.l2.ReadExReq_avg_mshr_miss_latency::total 50584.830019                       # average ReadExReq mshr miss latency
system.l2.ReadCleanReq_hits::.switch_cpus.inst       252481                       # number of ReadCleanReq hits
system.l2.ReadCleanReq_hits::total             252481                       # number of ReadCleanReq hits
system.l2.ReadCleanReq_misses::.cpu.inst            2                       # number of ReadCleanReq misses
[...]
system.cpu.itb_walker_cache.blocked_cycles::no_mshrs            0                       # number of cycles access was blocked
system.cpu.itb_walker_cache.blocked_cycles::no_targets            0                       # number of cycles access was blocked
system.cpu.itb_walker_cache.blocked::no_mshrs            0                       # number of cycles access was blocked
system.cpu.itb_walker_cache.blocked::no_targets            0                       # number of cycles access was blocked
system.cpu.itb_walker_cache.avg_blocked_cycles::no_mshrs          nan                       # average number of cycles each access was blocked
system.cpu.itb_walker_cache.avg_blocked_cycles::no_targets          nan                       # average number of cycles each access was blocked
system.cpu.itb_walker_cache.replacements            0                       # number of replacements
system.cpu.itb_walker_cache.power_state.pwrStateResidencyTicks::UNDEFINED   8621184000                       # Cumulative time (in ticks) in various power states
system.cpu.itb_walker_cache.tags.tagsinuse            0                       # Cycle average of tags in use
system.cpu.itb_walker_cache.tags.total_refs            0                       # Total number of references to valid blocks.
system.cpu.itb_walker_cache.tags.sampled_refs            0                       # Sample count of references to valid blocks.
system.cpu.itb_walker_cache.tags.avg_refs          nan                       # Average number of references to valid blocks.
system.cpu.itb_walker_cache.tags.warmup_cycle            0                       # Cycle when the warmup percentage was hit.
system.cpu.itb_walker_cache.tags.tag_accesses            0                       # Number of tag accesses
system.cpu.itb_walker_cache.tags.data_accesses            0                       # Number of data accesses
system.cpu.itb_walker_cache.tags.power_state.pwrStateResidencyTicks::UNDEFINED   8621184000                       # Cumulative time (in ticks) in various power states
system.cpu.itb.walker.power_state.pwrStateResidencyTicks::UNDEFINED   8621184000                       # Cumulative time (in ticks) in various power states
system.cpu.dtb_walker_cache.blocked_cycles::no_mshrs            0                       # number of cycles access was blocked
system.cpu.dtb_walker_cache.blocked_cycles::no_targets            0                       # number of cycles access was blocked
system.cpu.dtb_walker_cache.blocked::no_mshrs            0                       # number of cycles access was blocked
system.cpu.dtb_walker_cache.blocked::no_targets            0                       # number of cycles access was blocked
system.cpu.dtb_walker_cache.avg_blocked_cycles::no_mshrs          nan                       # average number of cycles each access was blocked
system.cpu.dtb_walker_cache.avg_blocked_cycles::no_targets          nan                       # average number of cycles each access was blocked
system.cpu.dtb_walker_cache.replacements            0                       # number of replacements
system.cpu.dtb_walker_cache.power_state.pwrStateResidencyTicks::UNDEFINED   8621184000                       # Cumulative time (in ticks) in various power states
system.cpu.dtb_walker_cache.tags.tagsinuse            0                       # Cycle average of tags in use
system.cpu.dtb_walker_cache.tags.total_refs            0                       # Total number of references to valid blocks.
system.cpu.dtb_walker_cache.tags.sampled_refs            0                       # Sample count of references to valid blocks.
system.cpu.dtb_walker_cache.tags.avg_refs          nan                       # Average number of references to valid blocks.
system.cpu.dtb_walker_cache.tags.warmup_cycle            0                       # Cycle when the warmup percentage was hit.
system.cpu.dtb_walker_cache.tags.tag_accesses            0                       # Number of tag accesses
system.cpu.dtb_walker_cache.tags.data_accesses            0                       # Number of data accesses
system.cpu.dtb_walker_cache.tags.power_state.pwrStateResidencyTicks::UNDEFINED   8621184000                       # Cumulative time (in ticks) in various power states
system.cpu.dcache.demand_hits::.cpu.data            6                       # number of demand (read+write) hits
system.cpu.dcache.demand_hits::.switch_cpus.data      3714436                       # number of demand (read+write) hits
system.cpu.dcache.demand_hits::total          3714442                       # number of demand (read+write) hits
system.cpu.dcache.overall_hits::.cpu.data            6                       # number of overall hits
system.cpu.dcache.overall_hits::.switch_cpus.data      3714436                       # number of overall hits
system.cpu.dcache.overall_hits::total         3714442                       # number of overall hits
system.cpu.dcache.demand_misses::.cpu.data            1                       # number of demand (read+write) misses
system.cpu.dcache.demand_misses::.switch_cpus.data       360443                       # number of demand (read+write) misses
system.cpu.dcache.demand_misses::total         360444                       # number of demand (read+write) misses
system.cpu.dcache.overall_misses::.cpu.data            1                       # number of overall misses
system.cpu.dcache.overall_misses::.switch_cpus.data       360443                       # number of overall misses
system.cpu.dcache.overall_misses::total        360444                       # number of overall misses
system.cpu.dcache.demand_miss_latency::.switch_cpus.data  10210039915                       # number of demand (read+write) miss cycles
system.cpu.dcache.demand_miss_latency::total  10210039915                       # number of demand (read+write) miss cycles
system.cpu.dcache.overall_miss_latency::.switch_cpus.data  10210039915                       # number of overall miss cycles
system.cpu.dcache.overall_miss_latency::total  10210039915                       # number of overall miss cycles
system.cpu.dcache.demand_accesses::.cpu.data            7                       # number of demand (read+write) accesses
system.cpu.dcache.demand_accesses::.switch_cpus.data      4074879                       # number of demand (read+write) accesses
system.cpu.dcache.demand_accesses::total      4074886                       # number of demand (read+write) accesses
system.cpu.dcache.overall_accesses::.cpu.data            7                       # number of overall (read+write) accesses
system.cpu.dcache.overall_accesses::.switch_cpus.data      4074879                       # number of overall (read+write) accesses
system.cpu.dcache.overall_accesses::total      4074886                       # number of overall (read+write) accesses
system.cpu.dcache.demand_miss_rate::.cpu.data     0.142857                       # miss rate for demand accesses
system.cpu.dcache.demand_miss_rate::.switch_cpus.data     0.088455                       # miss rate for demand accesses
system.cpu.dcache.demand_miss_rate::total     0.088455                       # miss rate for demand accesses
system.cpu.dcache.overall_miss_rate::.cpu.data     0.142857                       # miss rate for overall accesses
system.cpu.dcache.overall_miss_rate::.switch_cpus.data     0.088455                       # miss rate for overall accesses
system.cpu.dcache.overall_miss_rate::total     0.088455                       # miss rate for overall accesses
system.cpu.dcache.demand_avg_miss_latency::.switch_cpus.data 28326.364821                       # average overall miss latency
system.cpu.dcache.demand_avg_miss_latency::total 28326.286233                       # average overall miss latency
system.cpu.dcache.overall_avg_miss_latency::.switch_cpus.data 28326.364821                       # average overall miss latency
system.cpu.dcache.overall_avg_miss_latency::total 28326.286233                       # average overall miss latency
system.cpu.dcache.blocked_cycles::no_mshrs       127654                       # number of cycles access was blocked
system.cpu.dcache.blocked_cycles::no_targets         1945                       # number of cycles access was blocked
system.cpu.dcache.blocked::no_mshrs              8679                       # number of cycles access was blocked
system.cpu.dcache.blocked::no_targets              28                       # number of cycles access was blocked
system.cpu.dcache.avg_blocked_cycles::no_mshrs    14.708377                       # average number of cycles each access was blocked
system.cpu.dcache.avg_blocked_cycles::no_targets    69.464286                       # average number of cycles each access was blocked
system.cpu.dcache.writebacks::.writebacks        38101                       # number of writebacks
system.cpu.dcache.writebacks::total             38101                       # number of writebacks
system.cpu.dcache.demand_mshr_hits::.switch_cpus.data       125333                       # number of demand (read+write) MSHR hits
system.cpu.dcache.demand_mshr_hits::total       125333                       # number of demand (read+write) MSHR hits
system.cpu.dcache.overall_mshr_hits::.switch_cpus.data       125333                       # number of overall MSHR hits
system.cpu.dcache.overall_mshr_hits::total       125333                       # number of overall MSHR hits
system.cpu.dcache.demand_mshr_misses::.switch_cpus.data       235110                       # number of demand (read+write) MSHR misses
system.cpu.dcache.demand_mshr_misses::total       235110                       # number of demand (read+write) MSHR misses
system.cpu.dcache.overall_mshr_misses::.switch_cpus.data       235110                       # number of overall MSHR misses
system.cpu.dcache.overall_mshr_misses::total       235110                       # number of overall MSHR misses
system.cpu.dcache.demand_mshr_miss_latency::.switch_cpus.data   5523917917                       # number of demand (read+write) MSHR miss cycles
system.cpu.dcache.demand_mshr_miss_latency::total   5523917917                       # number of demand (read+write) MSHR miss cycles
system.cpu.dcache.overall_mshr_miss_latency::.switch_cpus.data   5523917917                       # number of overall MSHR miss cycles
system.cpu.dcache.overall_mshr_miss_latency::total   5523917917                       # number of overall MSHR miss cycles
system.cpu.dcache.demand_mshr_miss_rate::.switch_cpus.data     0.057697                       # mshr miss rate for demand accesses
system.cpu.dcache.demand_mshr_miss_rate::total     0.057697                       # mshr miss rate for demand accesses
system.cpu.dcache.overall_mshr_miss_rate::.switch_cpus.data     0.057697                       # mshr miss rate for overall accesses
system.cpu.dcache.overall_mshr_miss_rate::total     0.057697                       # mshr miss rate for overall accesses
system.cpu.dcache.demand_avg_mshr_miss_latency::.switch_cpus.data 23495.036013                       # average overall mshr miss latency
system.cpu.dcache.demand_avg_mshr_miss_latency::total 23495.036013                       # average overall mshr miss latency
system.cpu.dcache.overall_avg_mshr_miss_latency::.switch_cpus.data 23495.036013                       # average overall mshr miss latency
system.cpu.dcache.overall_avg_mshr_miss_latency::total 23495.036013                       # average overall mshr miss latency
system.cpu.dcache.replacements                 235045                       # number of replacements
system.cpu.dcache.ReadReq_hits::.switch_cpus.data      2335357                       # number of ReadReq hits
system.cpu.dcache.ReadReq_hits::total         2335357                       # number of ReadReq hits
system.cpu.dcache.ReadReq_misses::.switch_cpus.data       335099                       # number of ReadReq misses
system.cpu.dcache.ReadReq_misses::total        335099                       # number of ReadReq misses
system.cpu.dcache.ReadReq_miss_latency::.switch_cpus.data   9483250500                       # number of ReadReq miss cycles
system.cpu.dcache.ReadReq_miss_latency::total   9483250500                       # number of ReadReq miss cycles
system.cpu.dcache.ReadReq_accesses::.switch_cpus.data      2670456                       # number of ReadReq accesses(hits+misses)
system.cpu.dcache.ReadReq_accesses::total      2670456                       # number of ReadReq accesses(hits+misses)
system.cpu.dcache.ReadReq_miss_rate::.switch_cpus.data     0.125484                       # miss rate for ReadReq accesses
system.cpu.dcache.ReadReq_miss_rate::total     0.125484                       # miss rate for ReadReq accesses
system.cpu.dcache.ReadReq_avg_miss_latency::.switch_cpus.data 28299.847209                       # average ReadReq miss latency
system.cpu.dcache.ReadReq_avg_miss_latency::total 28299.847209                       # average ReadReq miss latency
system.cpu.dcache.ReadReq_mshr_hits::.switch_cpus.data       125089                       # number of ReadReq MSHR hits
system.cpu.dcache.ReadReq_mshr_hits::total       125089                       # number of ReadReq MSHR hits
system.cpu.dcache.ReadReq_mshr_misses::.switch_cpus.data       210010                       # number of ReadReq MSHR misses
system.cpu.dcache.ReadReq_mshr_misses::total       210010                       # number of ReadReq MSHR misses
system.cpu.dcache.ReadReq_mshr_miss_latency::.switch_cpus.data   4830206500                       # number of ReadReq MSHR miss cycles
system.cpu.dcache.ReadReq_mshr_miss_latency::total   4830206500                       # number of ReadReq MSHR miss cycles
system.cpu.dcache.ReadReq_mshr_miss_rate::.switch_cpus.data     0.078642                       # mshr miss rate for ReadReq accesses
system.cpu.dcache.ReadReq_mshr_miss_rate::total     0.078642                       # mshr miss rate for ReadReq accesses
system.cpu.dcache.ReadReq_avg_mshr_miss_latency::.switch_cpus.data 22999.888101                       # average ReadReq mshr miss latency
system.cpu.dcache.ReadReq_avg_mshr_miss_latency::total 22999.888101                       # average ReadReq mshr miss latency
system.cpu.dcache.WriteReq_hits::.cpu.data            6                       # number of WriteReq hits
system.cpu.dcache.WriteReq_hits::.switch_cpus.data      1379079                       # number of WriteReq hits
system.cpu.dcache.WriteReq_hits::total        1379085                       # number of WriteReq hits
system.cpu.dcache.WriteReq_misses::.cpu.data            1                       # number of WriteReq misses
system.cpu.dcache.WriteReq_misses::.switch_cpus.data        25344                       # number of WriteReq misses
system.cpu.dcache.WriteReq_misses::total        25345                       # number of WriteReq misses
system.cpu.dcache.WriteReq_miss_latency::.switch_cpus.data    726789415                       # number of WriteReq miss cycles
system.cpu.dcache.WriteReq_miss_latency::total    726789415                       # number of WriteReq miss cycles
system.cpu.dcache.WriteReq_accesses::.cpu.data            7                       # number of WriteReq accesses(hits+misses)
system.cpu.dcache.WriteReq_accesses::.switch_cpus.data      1404423                       # number of WriteReq accesses(hits+misses)
system.cpu.dcache.WriteReq_accesses::total      1404430                       # number of WriteReq accesses(hits+misses)
system.cpu.dcache.WriteReq_miss_rate::.cpu.data     0.142857                       # miss rate for WriteReq accesses
system.cpu.dcache.WriteReq_miss_rate::.switch_cpus.data     0.018046                       # miss rate for WriteReq accesses
system.cpu.dcache.WriteReq_miss_rate::total     0.018046                       # miss rate for WriteReq accesses
system.cpu.dcache.WriteReq_avg_miss_latency::.switch_cpus.data 28676.981337                       # average WriteReq miss latency
system.cpu.dcache.WriteReq_avg_miss_latency::total 28675.849872                       # average WriteReq miss latency
system.cpu.dcache.WriteReq_mshr_hits::.switch_cpus.data          244                       # number of WriteReq MSHR hits
system.cpu.dcache.WriteReq_mshr_hits::total          244                       # number of WriteReq MSHR hits
system.cpu.dcache.WriteReq_mshr_misses::.switch_cpus.data        25100                       # number of WriteReq MSHR misses
system.cpu.dcache.WriteReq_mshr_misses::total        25100                       # number of WriteReq MSHR misses
system.cpu.dcache.WriteReq_mshr_miss_latency::.switch_cpus.data    693711417                       # number of WriteReq MSHR miss cycles
system.cpu.dcache.WriteReq_mshr_miss_latency::total    693711417                       # number of WriteReq MSHR miss cycles
system.cpu.dcache.WriteReq_mshr_miss_rate::.switch_cpus.data     0.017872                       # mshr miss rate for WriteReq accesses
system.cpu.dcache.WriteReq_mshr_miss_rate::total     0.017872                       # mshr miss rate for WriteReq accesses
system.cpu.dcache.WriteReq_avg_mshr_miss_latency::.switch_cpus.data 27637.905060                       # average WriteReq mshr miss latency
system.cpu.dcache.WriteReq_avg_mshr_miss_latency::total 27637.905060                       # average WriteReq mshr miss latency
system.cpu.dcache.power_state.pwrStateResidencyTicks::UNDEFINED   8621184000                       # Cumulative time (in ticks) in various power states
system.cpu.dcache.tags.tagsinuse            63.980655                       # Cycle average of tags in use
system.cpu.dcache.tags.total_refs             3949551                       # Total number of references to valid blocks.
system.cpu.dcache.tags.sampled_refs            235109                       # Sample count of references to valid blocks.
system.cpu.dcache.tags.avg_refs             16.798808                       # Average number of references to valid blocks.
system.cpu.dcache.tags.warmup_cycle              1500                       # Cycle when the warmup percentage was hit.
system.cpu.dcache.tags.occ_blocks::.cpu.data     0.000277                       # Average occupied blocks per requestor
system.cpu.dcache.tags.occ_blocks::.switch_cpus.data    63.980378                       # Average occupied blocks per requestor
system.cpu.dcache.tags.occ_percent::.cpu.data     0.000004                       # Average percentage of cache occupancy
system.cpu.dcache.tags.occ_percent::.switch_cpus.data     0.999693                       # Average percentage of cache occupancy
system.cpu.dcache.tags.occ_percent::total     0.999698                       # Average percentage of cache occupancy
system.cpu.dcache.tags.occ_task_id_blocks::1024           64                       # Occupied blocks per task id
system.cpu.dcache.tags.age_task_id_blocks_1024::0           59                       # Occupied blocks per task id
system.cpu.dcache.tags.age_task_id_blocks_1024::1            5                       # Occupied blocks per task id
system.cpu.dcache.tags.occ_task_id_percent::1024            1                       # Percentage of cache occupancy per task id
system.cpu.dcache.tags.tag_accesses           8384881                       # Number of tag accesses
system.cpu.dcache.tags.data_accesses          8384881                       # Number of data accesses
system.cpu.dcache.tags.power_state.pwrStateResidencyTicks::UNDEFINED   8621184000                       # Cumulative time (in ticks) in various power states
system.cpu.power_state.numTransitions               1                       # Number of power state transitions
system.cpu.power_state.pwrStateResidencyTicks::ON        10500                       # Cumulative time (in ticks) in various power states
system.cpu.power_state.pwrStateResidencyTicks::OFF   8621173500                       # Cumulative time (in ticks) in various power states

---------- End Simulation Statistics   ----------
