
---------- Begin Simulation Statistics ----------
final_tick                                46282751500                       # Number of ticks from beginning of simulation (restored from checkpoints and never reset)
host_inst_rate                                  47848                       # Simulator instruction rate (inst/s)
host_mem_usage                                 968596                       # Number of bytes of host memory used
host_op_rate                                    95305                       # Simulator op (including micro ops) rate (op/s)
host_seconds                                   208.99                       # Real time elapsed on the host
host_tick_rate                              221454613                       # Simulator tick rate (ticks/s)
sim_freq                                 1000000000000                       # Frequency of simulated ticks
sim_insts                                    10000010                       # Number of instructions simulated
sim_ops                                      19918153                       # Number of ops (including micro ops) simulated
sim_seconds                                  0.046283                       # Number of seconds simulated
sim_ticks                                 46282751500                       # Number of ticks simulated
system.cpu.Branches                                 1                       # Number of branches fetched
system.cpu.committedInsts                          10                       # Number of instructions committed
system.cpu.committedOps                            21                       # Number of ops (including micro ops) committed
system.cpu.dtb.rdAccesses                           0                       # TLB accesses on read requests
system.cpu.dtb.rdMisses                             0                       # TLB misses on read requests
system.cpu.dtb.wrAccesses                           7                       # TLB accesses on write requests
system.cpu.dtb.wrMisses                             1                       # TLB misses on write requests
system.cpu.idle_fraction                            0                       # Percentage of idle cycles
system.cpu.itb.rdAccesses                           0                       # TLB accesses on read requests
system.cpu.itb.rdMisses                             0                       # TLB misses on read requests
system.cpu.itb.wrAccesses                          10                       # TLB accesses on write requests
system.cpu.itb.wrMisses                             0                       # TLB misses on write requests
system.cpu.not_idle_fraction                        1                       # Percentage of non-idle cycles
system.cpu.numCycles                               21                       # number of cpu cycles simulated
system.cpu.numWorkItemsCompleted                    0                       # number of work items this cpu completed
system.cpu.numWorkItemsStarted                      0                       # number of work items this cpu started
system.cpu.num_busy_cycles                         21                       # Number of busy cycles
system.cpu.num_cc_register_writes                   2                       # number of times the CC registers were written
system.cpu.num_conditional_control_insts            0                       # number of instructions that are conditional controls
system.cpu.num_fp_alu_accesses                      0                       # Number of float alu accesses
system.cpu.num_fp_insts                             0                       # number of float instructions
system.cpu.num_fp_register_reads                    0                       # number of times the floating registers were read
system.cpu.num_fp_register_writes                   0                       # number of times the floating registers were written
system.cpu.num_func_calls                           1                       # number of times a function call or return occured
system.cpu.num_idle_cycles                          0                       # Number of idle cycles
system.cpu.num_int_alu_accesses                    21                       # Number of integer alu accesses
system.cpu.num_int_insts                           21                       # number of integer instructions
system.cpu.num_int_register_reads                  47                       # number of times the integer registers were read
system.cpu.num_int_register_writes                 13                       # number of times the integer registers were written
system.cpu.num_load_insts                           0                       # Number of load instructions
system.cpu.num_mem_refs                             7                       # number of memory refs
system.cpu.num_store_insts                          7                       # Number of store instructions
system.cpu.num_vec_alu_accesses                     0                       # Number of vector alu accesses
system.cpu.num_vec_insts                            0                       # number of vector instructions
system.cpu.num_vec_register_reads                   0                       # number of times the vector registers were read
system.cpu.num_vec_register_writes                  0                       # number of times the vector registers were written
system.cpu.op_class::No_OpClass                     0      0.00%      0.00% # Class of executed instruction
system.cpu.op_class::IntAlu                        14     66.67%     66.67% # Class of executed instruction
system.cpu.op_class::IntMult                        0      0.00%     66.67% # Class of executed instruction
system.cpu.op_class::IntDiv                         0      0.00%     66.67% # Class of executed instruction
system.cpu.op_class::FloatAdd                       0      0.00%     66.67% # Class of executed instruction
system.cpu.op_class::FloatCmp                       0      0.00%     66.67% # Class of executed instruction
system.cpu.op_class::FloatCvt                       0      0.00%     66.67% # Class of executed instruction
system.cpu.op_class::FloatMult                      0      0.00%     66.67% # Class of executed instruction
system.cpu.op_class::FloatMultAcc                   0      0.00%     66.67% # Class of executed instruction
system.cpu.op_class::FloatDiv                       0      0.00%     66.67% # Class of executed instruction
system.cpu.op_class::FloatMisc                      0      0.00%     66.67% # Class of executed instruction
system.cpu.op_class::FloatSqrt                      0      0.00%     66.67% # Class of executed instruction
system.cpu.op_class::SimdAdd                        0      0.00%     66.67% # Class of executed instruction
system.cpu.op_class::SimdAddAcc                     0      0.00%     66.67% # Class of executed instruction
system.cpu.op_class::SimdAlu                        0      0.00%     66.67% # Class of executed instruction
system.cpu.op_class::SimdCmp                        0      0.00%     66.67% # Class of executed instruction
system.cpu.op_class::SimdCvt                        0      0.00%     66.67% # Class of executed instruction
system.cpu.op_class::SimdMisc                       0      0.00%     66.67% # Class of executed instruction
system.cpu.op_class::SimdMult                       0      0.00%     66.67% # Class of executed instruction
system.cpu.op_class::SimdMultAcc                    0      0.00%     66.67% # Class of executed instruction
system.cpu.op_class::SimdShift                      0      0.00%     66.67% # Class of executed instruction
system.cpu.op_class::SimdShiftAcc                   0      0.00%     66.67% # Class of executed instruction
system.cpu.op_class::SimdDiv                        0      0.00%     66.67% # Class of executed instruction
system.cpu.op_class::SimdSqrt                       0      0.00%     66.67% # Class of executed instruction
system.cpu.op_class::SimdFloatAdd                   0      0.00%     66.67% # Class of executed instruction
system.cpu.op_class::SimdFloatAlu                   0      0.00%     66.67% # Class of executed instruction
system.cpu.op_class::SimdFloatCmp                   0      0.00%     66.67% # Class of executed instruction
system.cpu.op_class::SimdFloatCvt                   0      0.00%     66.67% # Class of executed instruction
system.cpu.op_class::SimdFloatDiv                   0      0.00%     66.67% # Class of executed instruction
system.cpu.op_class::SimdFloatMisc                  0      0.00%     66.67% # Class of executed instruction
system.cpu.op_class::SimdFloatMult                  0      0.00%     66.67% # Class of executed instruction
system.cpu.op_class::SimdFloatMultAcc               0      0.00%     66.67% # Class of executed instruction
system.cpu.op_class::SimdFloatSqrt                  0      0.00%     66.67% # Class of executed instruction
system.cpu.op_class::SimdReduceAdd                  0      0.00%     66.67% # Class of executed instruction
system.cpu.op_class::SimdReduceAlu                  0      0.00%     66.67% # Class of executed instruction
system.cpu.op_class::SimdReduceCmp                  0      0.00%     66.67% # Class of executed instruction
system.cpu.op_class::SimdFloatReduceAdd             0      0.00%     66.67% # Class of executed instruction
system.cpu.op_class::SimdFloatReduceCmp             0      0.00%     66.67% # Class of executed instruction
system.cpu.op_class::SimdAes                        0      0.00%     66.67% # Class of executed instruction
system.cpu.op_class::SimdAesMix                     0      0.00%     66.67% # Class of executed instruction
system.cpu.op_class::SimdSha1Hash                   0      0.00%     66.67% # Class of executed instruction
system.cpu.op_class::SimdSha1Hash2                  0      0.00%     66.67% # Class of executed instruction
system.cpu.op_class::SimdSha256Hash                 0      0.00%     66.67% # Class of executed instruction
system.cpu.op_class::SimdSha256Hash2                0      0.00%     66.67% # Class of executed instruction
system.cpu.op_class::SimdShaSigma2                  0      0.00%     66.67% # Class of executed instruction
system.cpu.op_class::SimdShaSigma3                  0      0.00%     66.67% # Class of executed instruction
system.cpu.op_class::SimdPredAlu                    0      0.00%     66.67% # Class of executed instruction
system.cpu.op_class::MemRead                        0      0.00%     66.67% # Class of executed instruction
system.cpu.op_class::MemWrite                       7     33.33%    100.00% # Class of executed instruction
system.cpu.op_class::FloatMemRead                   0      0.00%    100.00% # Class of executed instruction
system.cpu.op_class::FloatMemWrite                  0      0.00%    100.00% # Class of executed instruction
system.cpu.op_class::IprAccess                      0      0.00%    100.00% # Class of executed instruction
system.cpu.op_class::InstPrefetch                   0      0.00%    100.00% # Class of executed instruction
system.cpu.op_class::total                         21                       # Class of executed instruction
system.cpu.workload.numSyscalls                   156                       # Number of system calls
system.membus.snoop_filter.hit_multi_requests            0                       # Number of requests hitting in the snoop filter with multiple (>1) holders of the requested data.
system.membus.snoop_filter.hit_multi_snoops            0                       # Number of snoops hitting in the snoop filter with multiple (>1) holders of the requested data.
system.membus.snoop_filter.hit_single_requests       940792                       # Number of requests hitting in the snoop filter with a single holder of the requested data.
system.membus.snoop_filter.hit_single_snoops            0                       # Number of snoops hitting in the snoop filter with a single holder of the requested data.
system.membus.snoop_filter.tot_requests       1881296                       # Total number of requests made to the snoop filter.
system.membus.snoop_filter.tot_snoops               0                       # Total number of snoops made to the snoop filter.
system.switch_cpus.branchPred.BTBCorrect            0                       # Number of correct BTB predictions (this stat may not work properly.
system.switch_cpus.branchPred.BTBHitPct           nan                       # BTB Hit Percentage
system.switch_cpus.branchPred.BTBHits               0                       # Number of BTB hits
system.switch_cpus.branchPred.BTBLookups            0                       # Number of BTB lookups
system.switch_cpus.branchPred.RASInCorrect         2297                       # Number of incorrect RAS predictions.
system.switch_cpus.branchPred.condIncorrect       954832                       # Number of conditional branches incorrect
system.switch_cpus.branchPred.condPredicted      5641774                       # Number of conditional branches predicted
system.switch_cpus.branchPred.indirectHits       706012                       # Number of indirect target hits.
system.switch_cpus.branchPred.indirectLookups      3464986                       # Number of indirect predictor lookups.
system.switch_cpus.branchPred.indirectMisses      2758974                       # Number of indirect misses.
system.switch_cpus.branchPred.lookups         6705672                       # Number of BP lookups
system.switch_cpus.branchPred.usedRAS          418049                       # Number of times the RAS was used to get a target.
system.switch_cpus.branchPredindirectMispredicted       731137                       # Number of mispredicted indirect branches.
system.switch_cpus.cc_regfile_reads          14888527                       # number of cc regfile reads
system.switch_cpus.cc_regfile_writes          8733057                       # number of cc regfile writes
system.switch_cpus.commit.amos                      0                       # Number of atomic instructions committed
system.switch_cpus.commit.branchMispredicts      1039340                       # The number of times a branch was mispredicted
system.switch_cpus.commit.branches            2371468                       # Number of branches committed
system.switch_cpus.commit.bw_lim_events        921153                       # number cycles where commit BW limit reached
system.switch_cpus.commit.commitNonSpecStalls         1911                       # The number of times commit has been forced to stall to communicate backwards
system.switch_cpus.commit.commitSquashedInsts     23304868                       # The number of squashed insts skipped by commit
system.switch_cpus.commit.committedInsts     10000000                       # Number of instructions committed
system.switch_cpus.commit.committedOps       19918132                       # Number of ops (including micro ops) committed
system.switch_cpus.commit.committed_per_cycle::samples     39746278                       # Number of insts commited each cycle
system.switch_cpus.commit.committed_per_cycle::mean     0.501132                       # Number of insts commited each cycle
system.switch_cpus.commit.committed_per_cycle::stdev     1.539313                       # Number of insts commited each cycle
system.switch_cpus.commit.committed_per_cycle::underflows            0      0.00%      0.00% # Number of insts commited each cycle
system.switch_cpus.commit.committed_per_cycle::0     34006522     85.56%     85.56% # Number of insts commited each cycle
system.switch_cpus.commit.committed_per_cycle::1      1622873      4.08%     89.64% # Number of insts commited each cycle
system.switch_cpus.commit.committed_per_cycle::2       936815      2.36%     92.00% # Number of insts commited each cycle
system.switch_cpus.commit.committed_per_cycle::3      1099107      2.77%     94.76% # Number of insts commited each cycle
system.switch_cpus.commit.committed_per_cycle::4       553368      1.39%     96.16% # Number of insts commited each cycle
system.switch_cpus.commit.committed_per_cycle::5       259764      0.65%     96.81% # Number of insts commited each cycle
system.switch_cpus.commit.committed_per_cycle::6       183940      0.46%     97.27% # Number of insts commited each cycle
system.switch_cpus.commit.committed_per_cycle::7       162736      0.41%     97.68% # Number of insts commited each cycle
system.switch_cpus.commit.committed_per_cycle::8       921153      2.32%    100.00% # Number of insts commited each cycle
system.switch_cpus.commit.committed_per_cycle::overflows            0      0.00%    100.00% # Number of insts commited each cycle
system.switch_cpus.commit.committed_per_cycle::min_value            0                       # Number of insts commited each cycle
system.switch_cpus.commit.committed_per_cycle::max_value            8                       # Number of insts commited each cycle
system.switch_cpus.commit.committed_per_cycle::total     39746278                       # Number of insts commited each cycle
system.switch_cpus.commit.fp_insts             201513                       # Number of committed floating point instructions.
system.switch_cpus.commit.function_calls       162933                       # Number of function calls committed.
system.switch_cpus.commit.int_insts          19687048                       # Number of committed integer instructions.
system.switch_cpus.commit.loads               2387785                       # Number of loads committed
system.switch_cpus.commit.membars                 980                       # Number of memory barriers committed
system.switch_cpus.commit.op_class_0::No_OpClass       103630      0.52%      0.52% # Class of committed instruction
system.switch_cpus.commit.op_class_0::IntAlu     15775395     79.20%     79.72% # Class of committed instruction
system.switch_cpus.commit.op_class_0::IntMult          311      0.00%     79.72% # Class of committed instruction
system.switch_cpus.commit.op_class_0::IntDiv         2239      0.01%     79.73% # Class of committed instruction
system.switch_cpus.commit.op_class_0::FloatAdd         8689      0.04%     79.78% # Class of committed instruction
system.switch_cpus.commit.op_class_0::FloatCmp            0      0.00%     79.78% # Class of committed instruction
system.switch_cpus.commit.op_class_0::FloatCvt          498      0.00%     79.78% # Class of committed instruction
system.switch_cpus.commit.op_class_0::FloatMult            0      0.00%     79.78% # Class of committed instruction
system.switch_cpus.commit.op_class_0::FloatMultAcc            0      0.00%     79.78% # Class of committed instruction
system.switch_cpus.commit.op_class_0::FloatDiv            0      0.00%     79.78% # Class of committed instruction
system.switch_cpus.commit.op_class_0::FloatMisc            0      0.00%     79.78% # Class of committed instruction
system.switch_cpus.commit.op_class_0::FloatSqrt            0      0.00%     79.78% # Class of committed instruction
system.switch_cpus.commit.op_class_0::SimdAdd         3932      0.02%     79.80% # Class of committed instruction
system.switch_cpus.commit.op_class_0::SimdAddAcc            0      0.00%     79.80% # Class of committed instruction
system.switch_cpus.commit.op_class_0::SimdAlu        26614      0.13%     79.93% # Class of committed instruction
system.switch_cpus.commit.op_class_0::SimdCmp            0      0.00%     79.93% # Class of committed instruction
system.switch_cpus.commit.op_class_0::SimdCvt        34946      0.18%     80.11% # Class of committed instruction
system.switch_cpus.commit.op_class_0::SimdMisc        67097      0.34%     80.45% # Class of committed instruction
system.switch_cpus.commit.op_class_0::SimdMult            0      0.00%     80.45% # Class of committed instruction
system.switch_cpus.commit.op_class_0::SimdMultAcc            0      0.00%     80.45% # Class of committed instruction
system.switch_cpus.commit.op_class_0::SimdShift            0      0.00%     80.45% # Class of committed instruction
system.switch_cpus.commit.op_class_0::SimdShiftAcc            0      0.00%     80.45% # Class of committed instruction
system.switch_cpus.commit.op_class_0::SimdDiv            0      0.00%     80.45% # Class of committed instruction
system.switch_cpus.commit.op_class_0::SimdSqrt            0      0.00%     80.45% # Class of committed instruction
system.switch_cpus.commit.op_class_0::SimdFloatAdd           10      0.00%     80.45% # Class of committed instruction
system.switch_cpus.commit.op_class_0::SimdFloatAlu            0      0.00%     80.45% # Class of committed instruction
system.switch_cpus.commit.op_class_0::SimdFloatCmp            0      0.00%     80.45% # Class of committed instruction
system.switch_cpus.commit.op_class_0::SimdFloatCvt         1062      0.01%     80.45% # Class of committed instruction
system.switch_cpus.commit.op_class_0::SimdFloatDiv            3      0.00%     80.45% # Class of committed instruction
system.switch_cpus.commit.op_class_0::SimdFloatMisc            0      0.00%     80.45% # Class of committed instruction
system.switch_cpus.commit.op_class_0::SimdFloatMult            9      0.00%     80.45% # Class of committed instruction
system.switch_cpus.commit.op_class_0::SimdFloatMultAcc            0      0.00%     80.45% # Class of committed instruction
system.switch_cpus.commit.op_class_0::SimdFloatSqrt            0      0.00%     80.45% # Class of committed instruction
system.switch_cpus.commit.op_class_0::SimdReduceAdd            0      0.00%     80.45% # Class of committed instruction
system.switch_cpus.commit.op_class_0::SimdReduceAlu            0      0.00%     80.45% # Class of committed instruction
system.switch_cpus.commit.op_class_0::SimdReduceCmp            0      0.00%     80.45% # Class of committed instruction
system.switch_cpus.commit.op_class_0::SimdFloatReduceAdd            0      0.00%     80.45% # Class of committed instruction
system.switch_cpus.commit.op_class_0::SimdFloatReduceCmp            0      0.00%     80.45% # Class of committed instruction
system.switch_cpus.commit.op_class_0::SimdAes            0      0.00%     80.45% # Class of committed instruction
system.switch_cpus.commit.op_class_0::SimdAesMix            0      0.00%     80.45% # Class of committed instruction
system.switch_cpus.commit.op_class_0::SimdSha1Hash            0      0.00%     80.45% # Class of committed instruction
system.switch_cpus.commit.op_class_0::SimdSha1Hash2            0      0.00%     80.45% # Class of committed instruction
system.switch_cpus.commit.op_class_0::SimdSha256Hash            0      0.00%     80.45% # Class of committed instruction
system.switch_cpus.commit.op_class_0::SimdSha256Hash2            0      0.00%     80.45% # Class of committed instruction
system.switch_cpus.commit.op_class_0::SimdShaSigma2            0      0.00%     80.45% # Class of committed instruction
system.switch_cpus.commit.op_class_0::SimdShaSigma3            0      0.00%     80.45% # Class of committed instruction
system.switch_cpus.commit.op_class_0::SimdPredAlu            0      0.00%     80.45% # Class of committed instruction
system.switch_cpus.commit.op_class_0::MemRead      2360976     11.85%     92.30% # Class of committed instruction
system.switch_cpus.commit.op_class_0::MemWrite      1491722      7.49%     99.79% # Class of committed instruction
system.switch_cpus.commit.op_class_0::FloatMemRead        26809      0.13%     99.93% # Class of committed instruction
system.switch_cpus.commit.op_class_0::FloatMemWrite        14190      0.07%    100.00% # Class of committed instruction
system.switch_cpus.commit.op_class_0::IprAccess            0      0.00%    100.00% # Class of committed instruction
system.switch_cpus.commit.op_class_0::InstPrefetch            0      0.00%    100.00% # Class of committed instruction
system.switch_cpus.commit.op_class_0::total     19918132                       # Class of committed instruction
system.switch_cpus.commit.refs                3893697                       # Number of memory references committed
system.switch_cpus.commit.swp_count                 0                       # Number of s/w prefetches committed
system.switch_cpus.commit.vec_insts                 0                       # Number of committed Vector instructions.
system.switch_cpus.committedInsts            10000000                       # Number of Instructions Simulated
system.switch_cpus.committedOps              19918132                       # Number of Ops (including micro ops) Simulated
system.switch_cpus.cpi                       9.256548                       # CPI: Cycles Per Instruction
system.switch_cpus.cpi_total                 9.256548                       # CPI: Total CPI of All Threads
system.switch_cpus.decode.BlockedCycles      11671790                       # Number of cycles decode is blocked
system.switch_cpus.decode.DecodedInsts       50388006                       # Number of instructions handled by decode
system.switch_cpus.decode.IdleCycles         23868696                       # Number of cycles decode is idle
system.switch_cpus.decode.RunCycles           6754841                       # Number of cycles decode is running
system.switch_cpus.decode.SquashCycles        1042846                       # Number of cycles decode is squashing
system.switch_cpus.decode.UnblockCycles        563315                       # Number of cycles decode is unblocking
system.switch_cpus.dtb.rdAccesses             4186274                       # TLB accesses on read requests
system.switch_cpus.dtb.rdMisses                 81902                       # TLB misses on read requests
system.switch_cpus.dtb.wrAccesses             2291480                       # TLB accesses on write requests
system.switch_cpus.dtb.wrMisses                 11096                       # TLB misses on write requests
system.switch_cpus.fetch.Branches             6705672                       # Number of branches that fetch encountered
system.switch_cpus.fetch.CacheLines           3451082                       # Number of cache lines fetched
system.switch_cpus.fetch.Cycles              16618467                       # Number of cycles fetch has run and was not squashing or blocked
system.switch_cpus.fetch.IcacheSquashes        616873                       # Number of outstanding Icache misses that were squashed
system.switch_cpus.fetch.IcacheWaitRetryStallCycles        37710                       # Number of stall cycles due to full MSHR
system.switch_cpus.fetch.Insts               27196424                       # Number of instructions fetch has processed
system.switch_cpus.fetch.MiscStallCycles       105894                       # Number of cycles fetch has spent waiting on interrupts, or bad addresses, or out of MSHRs
system.switch_cpus.fetch.PendingQuiesceStallCycles          122                       # Number of stall cycles due to pending quiesce instructions
system.switch_cpus.fetch.PendingTrapStallCycles       542640                       # Number of stall cycles due to pending traps
system.switch_cpus.fetch.SquashCycles         2085692                       # Number of cycles fetch has spent squashing
system.switch_cpus.fetch.branchRate          0.072442                       # Number of branch fetches per cycle
system.switch_cpus.fetch.icacheStallCycles     25553811                       # Number of cycles fetch is stalled on an Icache miss
system.switch_cpus.fetch.predictedBranches      1124061                       # Number of branches that fetch has predicted taken
system.switch_cpus.fetch.rate                0.293807                       # Number of inst fetches per cycle
system.switch_cpus.fetch.rateDist::samples     43901490                       # Number of instructions fetched each cycle (Total)
system.switch_cpus.fetch.rateDist::mean      1.265744                       # Number of instructions fetched each cycle (Total)
system.switch_cpus.fetch.rateDist::stdev     2.788652                       # Number of instructions fetched each cycle (Total)
system.switch_cpus.fetch.rateDist::underflows            0      0.00%      0.00% # Number of instructions fetched each cycle (Total)
system.switch_cpus.fetch.rateDist::0         35535351     80.94%     80.94% # Number of instructions fetched each cycle (Total)
system.switch_cpus.fetch.rateDist::1           448564      1.02%     81.97% # Number of instructions fetched each cycle (Total)
system.switch_cpus.fetch.rateDist::2           383439      0.87%     82.84% # Number of instructions fetched each cycle (Total)
system.switch_cpus.fetch.rateDist::3           450611      1.03%     83.86% # Number of instructions fetched each cycle (Total)
system.switch_cpus.fetch.rateDist::4           348328      0.79%     84.66% # Number of instructions fetched each cycle (Total)
system.switch_cpus.fetch.rateDist::5           408916      0.93%     85.59% # Number of instructions fetched each cycle (Total)
system.switch_cpus.fetch.rateDist::6           366500      0.83%     86.42% # Number of instructions fetched each cycle (Total)
system.switch_cpus.fetch.rateDist::7           314374      0.72%     87.14% # Number of instructions fetched each cycle (Total)
system.switch_cpus.fetch.rateDist::8          5645407     12.86%    100.00% # Number of instructions fetched each cycle (Total)
system.switch_cpus.fetch.rateDist::overflows            0      0.00%    100.00% # Number of instructions fetched each cycle (Total)
system.switch_cpus.fetch.rateDist::min_value            0                       # Number of instructions fetched each cycle (Total)
system.switch_cpus.fetch.rateDist::max_value            8                       # Number of instructions fetched each cycle (Total)
system.switch_cpus.fetch.rateDist::total     43901490                       # Number of instructions fetched each cycle (Total)
system.switch_cpus.fp_regfile_reads            460211                       # number of floating regfile reads
system.switch_cpus.fp_regfile_writes           218218                       # number of floating regfile writes
system.switch_cpus.idleCycles                48663992                       # Total number of cycles that the CPU has spent unscheduled due to idling
system.switch_cpus.iew.branchMispredicts      1306884                       # Number of branch mispredicts detected at execute
system.switch_cpus.iew.exec_branches          3514600                       # Number of branches executed
system.switch_cpus.iew.exec_nop                     0                       # number of nop insts executed
system.switch_cpus.iew.exec_rate             0.373817                       # Inst execution rate
system.switch_cpus.iew.exec_refs              6612696                       # number of memory reference insts executed
system.switch_cpus.iew.exec_stores            2291123                       # Number of stores executed
system.switch_cpus.iew.exec_swp                     0                       # number of swp insts executed
system.switch_cpus.iew.iewBlockCycles         5838296                       # Number of cycles IEW is blocking
system.switch_cpus.iew.iewDispLoadInsts       5506920                       # Number of dispatched load instructions
system.switch_cpus.iew.iewDispNonSpecInsts        29860                       # Number of dispatched non-speculative instructions
system.switch_cpus.iew.iewDispSquashedInsts        94022                       # Number of squashed instructions skipped by dispatch
system.switch_cpus.iew.iewDispStoreInsts      3061667                       # Number of dispatched store instructions
system.switch_cpus.iew.iewDispatchedInsts     43219079                       # Number of instructions dispatched to IQ
system.switch_cpus.iew.iewExecLoadInsts       4321573                       # Number of load instructions executed
system.switch_cpus.iew.iewExecSquashedInsts      1622931                       # Number of squashed instructions skipped in execute
system.switch_cpus.iew.iewExecutedInsts      34602585                       # Number of executed instructions
system.switch_cpus.iew.iewIQFullEvents          52387                       # Number of times the IQ has become full, causing a stall
system.switch_cpus.iew.iewIdleCycles                0                       # Number of cycles IEW is idle
system.switch_cpus.iew.iewLSQFullEvents        346593                       # Number of times the LSQ has become full, causing a stall
system.switch_cpus.iew.iewSquashCycles        1042846                       # Number of cycles IEW is squashing
system.switch_cpus.iew.iewUnblockCycles        418513                       # Number of cycles IEW is unblocking
system.switch_cpus.iew.lsq.thread0.blockedLoads            0                       # Number of blocked loads due to partial load-store forwarding
system.switch_cpus.iew.lsq.thread0.cacheBlocked        53312                       # Number of times an access to memory failed due to the cache being blocked
system.switch_cpus.iew.lsq.thread0.forwLoads       254618                       # Number of loads that had data forwarded from stores
system.switch_cpus.iew.lsq.thread0.ignoredResponses         3951                       # Number of memory responses ignored because the instruction is squashed
system.switch_cpus.iew.lsq.thread0.invAddrLoads            0                       # Number of loads ignored due to an invalid address
system.switch_cpus.iew.lsq.thread0.invAddrSwpfs            0                       # Number of software prefetches ignored due to an invalid address
system.switch_cpus.iew.lsq.thread0.memOrderViolation         4269                       # Number of memory ordering violations
system.switch_cpus.iew.lsq.thread0.rescheduledLoads         3824                       # Number of loads that were rescheduled
system.switch_cpus.iew.lsq.thread0.squashedLoads      3119135                       # Number of loads squashed
system.switch_cpus.iew.lsq.thread0.squashedStores      1555755                       # Number of stores squashed
system.switch_cpus.iew.memOrderViolationEvents         4269                       # Number of memory order violations
system.switch_cpus.iew.predictedNotTakenIncorrect      1281638                       # Number of branches that were predicted not taken incorrectly
system.switch_cpus.iew.predictedTakenIncorrect        25246                       # Number of branches that were predicted taken incorrectly
system.switch_cpus.iew.wb_consumers          35952774                       # num instructions consuming a value
system.switch_cpus.iew.wb_count              33554633                       # cumulative count of insts written-back
system.switch_cpus.iew.wb_fanout             0.662196                       # average fanout of values written-back
system.switch_cpus.iew.wb_producers          23807774                       # num instructions producing a value
system.switch_cpus.iew.wb_rate               0.362496                       # insts written-back per cycle
system.switch_cpus.iew.wb_sent               33906617                       # cumulative count of insts sent to commit
system.switch_cpus.int_regfile_reads         44186069                       # number of integer regfile reads
system.switch_cpus.int_regfile_writes        27233654                       # number of integer regfile writes
system.switch_cpus.ipc                       0.108032                       # IPC: Instructions Per Cycle
system.switch_cpus.ipc_total                 0.108032                       # IPC: Total IPC of All Threads
system.switch_cpus.iq.FU_type_0::No_OpClass       599795      1.66%      1.66% # Type of FU issued
system.switch_cpus.iq.FU_type_0::IntAlu      28328080     78.20%     79.85% # Type of FU issued
system.switch_cpus.iq.FU_type_0::IntMult          668      0.00%     79.86% # Type of FU issued
system.switch_cpus.iq.FU_type_0::IntDiv          2378      0.01%     79.86% # Type of FU issued
system.switch_cpus.iq.FU_type_0::FloatAdd        25027      0.07%     79.93% # Type of FU issued
system.switch_cpus.iq.FU_type_0::FloatCmp            0      0.00%     79.93% # Type of FU issued
system.switch_cpus.iq.FU_type_0::FloatCvt        32315      0.09%     80.02% # Type of FU issued
system.switch_cpus.iq.FU_type_0::FloatMult            0      0.00%     80.02% # Type of FU issued
system.switch_cpus.iq.FU_type_0::FloatMultAcc            0      0.00%     80.02% # Type of FU issued
system.switch_cpus.iq.FU_type_0::FloatDiv            0      0.00%     80.02% # Type of FU issued
system.switch_cpus.iq.FU_type_0::FloatMisc            0      0.00%     80.02% # Type of FU issued
system.switch_cpus.iq.FU_type_0::FloatSqrt            0      0.00%     80.02% # Type of FU issued
system.switch_cpus.iq.FU_type_0::SimdAdd         5707      0.02%     80.04% # Type of FU issued
system.switch_cpus.iq.FU_type_0::SimdAddAcc            0      0.00%     80.04% # Type of FU issued
system.switch_cpus.iq.FU_type_0::SimdAlu        41527      0.11%     80.15% # Type of FU issued
system.switch_cpus.iq.FU_type_0::SimdCmp            0      0.00%     80.15% # Type of FU issued
system.switch_cpus.iq.FU_type_0::SimdCvt        47747      0.13%     80.28% # Type of FU issued
system.switch_cpus.iq.FU_type_0::SimdMisc        76344      0.21%     80.49% # Type of FU issued
system.switch_cpus.iq.FU_type_0::SimdMult            0      0.00%     80.49% # Type of FU issued
system.switch_cpus.iq.FU_type_0::SimdMultAcc            0      0.00%     80.49% # Type of FU issued
system.switch_cpus.iq.FU_type_0::SimdShift            0      0.00%     80.49% # Type of FU issued
system.switch_cpus.iq.FU_type_0::SimdShiftAcc            0      0.00%     80.49% # Type of FU issued
system.switch_cpus.iq.FU_type_0::SimdDiv            0      0.00%     80.49% # Type of FU issued
system.switch_cpus.iq.FU_type_0::SimdSqrt            0      0.00%     80.49% # Type of FU issued
system.switch_cpus.iq.FU_type_0::SimdFloatAdd           31      0.00%     80.49% # Type of FU issued
system.switch_cpus.iq.FU_type_0::SimdFloatAlu            0      0.00%     80.49% # Type of FU issued
system.switch_cpus.iq.FU_type_0::SimdFloatCmp            0      0.00%     80.49% # Type of FU issued
system.switch_cpus.iq.FU_type_0::SimdFloatCvt         2177      0.01%     80.50% # Type of FU issued
system.switch_cpus.iq.FU_type_0::SimdFloatDiv            3      0.00%     80.50% # Type of FU issued
system.switch_cpus.iq.FU_type_0::SimdFloatMisc            0      0.00%     80.50% # Type of FU issued
system.switch_cpus.iq.FU_type_0::SimdFloatMult           35      0.00%     80.50% # Type of FU issued
system.switch_cpus.iq.FU_type_0::SimdFloatMultAcc            0      0.00%     80.50% # Type of FU issued
system.switch_cpus.iq.FU_type_0::SimdFloatSqrt            0      0.00%     80.50% # Type of FU issued
system.switch_cpus.iq.FU_type_0::SimdReduceAdd            0      0.00%     80.50% # Type of FU issued
system.switch_cpus.iq.FU_type_0::SimdReduceAlu            0      0.00%     80.50% # Type of FU issued
system.switch_cpus.iq.FU_type_0::SimdReduceCmp            0      0.00%     80.50% # Type of FU issued
system.switch_cpus.iq.FU_type_0::SimdFloatReduceAdd            0      0.00%     80.50% # Type of FU issued
system.switch_cpus.iq.FU_type_0::SimdFloatReduceCmp            0      0.00%     80.50% # Type of FU issued
system.switch_cpus.iq.FU_type_0::SimdAes            0      0.00%     80.50% # Type of FU issued
system.switch_cpus.iq.FU_type_0::SimdAesMix            0      0.00%     80.50% # Type of FU issued
system.switch_cpus.iq.FU_type_0::SimdSha1Hash            0      0.00%     80.50% # Type of FU issued
system.switch_cpus.iq.FU_type_0::SimdSha1Hash2            0      0.00%     80.50% # Type of FU issued
system.switch_cpus.iq.FU_type_0::SimdSha256Hash            0      0.00%     80.50% # Type of FU issued
system.switch_cpus.iq.FU_type_0::SimdSha256Hash2            0      0.00%     80.50% # Type of FU issued
system.switch_cpus.iq.FU_type_0::SimdShaSigma2            0      0.00%     80.50% # Type of FU issued
system.switch_cpus.iq.FU_type_0::SimdShaSigma3            0      0.00%     80.50% # Type of FU issued
system.switch_cpus.iq.FU_type_0::SimdPredAlu            0      0.00%     80.50% # Type of FU issued
system.switch_cpus.iq.FU_type_0::MemRead      4546177     12.55%     93.05% # Type of FU issued
system.switch_cpus.iq.FU_type_0::MemWrite      2416498      6.67%     99.72% # Type of FU issued
system.switch_cpus.iq.FU_type_0::FloatMemRead        63215      0.17%     99.90% # Type of FU issued
system.switch_cpus.iq.FU_type_0::FloatMemWrite        37792      0.10%    100.00% # Type of FU issued
system.switch_cpus.iq.FU_type_0::IprAccess            0      0.00%    100.00% # Type of FU issued
system.switch_cpus.iq.FU_type_0::InstPrefetch            0      0.00%    100.00% # Type of FU issued
system.switch_cpus.iq.FU_type_0::total       36225516                       # Type of FU issued
system.switch_cpus.iq.fp_alu_accesses          364741                       # Number of floating point alu accesses
system.switch_cpus.iq.fp_inst_queue_reads       718755                       # Number of floating instruction queue reads
system.switch_cpus.iq.fp_inst_queue_wakeup_accesses       324419                       # Number of floating instruction queue wakeup accesses
system.switch_cpus.iq.fp_inst_queue_writes       626683                       # Number of floating instruction queue writes
system.switch_cpus.iq.fu_busy_cnt              522346                       # FU busy when requested
system.switch_cpus.iq.fu_busy_rate           0.014419                       # FU busy rate (busy events/executed inst)
system.switch_cpus.iq.fu_full::No_OpClass            0      0.00%      0.00% # attempts to use FU when none available
system.switch_cpus.iq.fu_full::IntAlu          463044     88.65%     88.65% # attempts to use FU when none available
system.switch_cpus.iq.fu_full::IntMult              0      0.00%     88.65% # attempts to use FU when none available
system.switch_cpus.iq.fu_full::IntDiv               0      0.00%     88.65% # attempts to use FU when none available
system.switch_cpus.iq.fu_full::FloatAdd             0      0.00%     88.65% # attempts to use FU when none available
system.switch_cpus.iq.fu_full::FloatCmp             0      0.00%     88.65% # attempts to use FU when none available
system.switch_cpus.iq.fu_full::FloatCvt            15      0.00%     88.65% # attempts to use FU when none available
system.switch_cpus.iq.fu_full::FloatMult            0      0.00%     88.65% # attempts to use FU when none available
system.switch_cpus.iq.fu_full::FloatMultAcc            0      0.00%     88.65% # attempts to use FU when none available
system.switch_cpus.iq.fu_full::FloatDiv             0      0.00%     88.65% # attempts to use FU when none available
system.switch_cpus.iq.fu_full::FloatMisc            0      0.00%     88.65% # attempts to use FU when none available
system.switch_cpus.iq.fu_full::FloatSqrt            0      0.00%     88.65% # attempts to use FU when none available
system.switch_cpus.iq.fu_full::SimdAdd              0      0.00%     88.65% # attempts to use FU when none available
system.switch_cpus.iq.fu_full::SimdAddAcc            0      0.00%     88.65% # attempts to use FU when none available
system.switch_cpus.iq.fu_full::SimdAlu            625      0.12%     88.77% # attempts to use FU when none available
system.switch_cpus.iq.fu_full::SimdCmp              0      0.00%     88.77% # attempts to use FU when none available
system.switch_cpus.iq.fu_full::SimdCvt           1407      0.27%     89.04% # attempts to use FU when none available
system.switch_cpus.iq.fu_full::SimdMisc            47      0.01%     89.05% # attempts to use FU when none available
system.switch_cpus.iq.fu_full::SimdMult             0      0.00%     89.05% # attempts to use FU when none available
system.switch_cpus.iq.fu_full::SimdMultAcc            0      0.00%     89.05% # attempts to use FU when none available
system.switch_cpus.iq.fu_full::SimdShift            0      0.00%     89.05% # attempts to use FU when none available
system.switch_cpus.iq.fu_full::SimdShiftAcc            0      0.00%     89.05% # attempts to use FU when none available
system.switch_cpus.iq.fu_full::SimdDiv              0      0.00%     89.05% # attempts to use FU when none available
system.switch_cpus.iq.fu_full::SimdSqrt             0      0.00%     89.05% # attempts to use FU when none available
system.switch_cpus.iq.fu_full::SimdFloatAdd            0      0.00%     89.05% # attempts to use FU when none available
system.switch_cpus.iq.fu_full::SimdFloatAlu            0      0.00%     89.05% # attempts to use FU when none available
system.switch_cpus.iq.fu_full::SimdFloatCmp            0      0.00%     89.05% # attempts to use FU when none available
system.switch_cpus.iq.fu_full::SimdFloatCvt            0      0.00%     89.05% # attempts to use FU when none available
system.switch_cpus.iq.fu_full::SimdFloatDiv            0      0.00%     89.05% # attempts to use FU when none available
system.switch_cpus.iq.fu_full::SimdFloatMisc            0      0.00%     89.05% # attempts to use FU when none available
system.switch_cpus.iq.fu_full::SimdFloatMult            0      0.00%     89.05% # attempts to use FU when none available
system.switch_cpus.iq.fu_full::SimdFloatMultAcc            0      0.00%     89.05% # attempts to use FU when none available
system.switch_cpus.iq.fu_full::SimdFloatSqrt            0      0.00%     89.05% # attempts to use FU when none available
system.switch_cpus.iq.fu_full::SimdReduceAdd            0      0.00%     89.05% # attempts to use FU when none available
system.switch_cpus.iq.fu_full::SimdReduceAlu            0      0.00%     89.05% # attempts to use FU when none available
system.switch_cpus.iq.fu_full::SimdReduceCmp            0      0.00%     89.05% # attempts to use FU when none available
system.switch_cpus.iq.fu_full::SimdFloatReduceAdd            0      0.00%     89.05% # attempts to use FU when none available
system.switch_cpus.iq.fu_full::SimdFloatReduceCmp            0      0.00%     89.05% # attempts to use FU when none available
system.switch_cpus.iq.fu_full::SimdAes              0      0.00%     89.05% # attempts to use FU when none available
system.switch_cpus.iq.fu_full::SimdAesMix            0      0.00%     89.05% # attempts to use FU when none available
system.switch_cpus.iq.fu_full::SimdSha1Hash            0      0.00%     89.05% # attempts to use FU when none available
system.switch_cpus.iq.fu_full::SimdSha1Hash2            0      0.00%     89.05% # attempts to use FU when none available
system.switch_cpus.iq.fu_full::SimdSha256Hash            0      0.00%     89.05% # attempts to use FU when none available
system.switch_cpus.iq.fu_full::SimdSha256Hash2            0      0.00%     89.05% # attempts to use FU when none available
system.switch_cpus.iq.fu_full::SimdShaSigma2            0      0.00%     89.05% # attempts to use FU when none available
system.switch_cpus.iq.fu_full::SimdShaSigma3            0      0.00%     89.05% # attempts to use FU when none available
system.switch_cpus.iq.fu_full::SimdPredAlu            0      0.00%     89.05% # attempts to use FU when none available
system.switch_cpus.iq.fu_full::MemRead          31388      6.01%     95.06% # attempts to use FU when none available
system.switch_cpus.iq.fu_full::MemWrite         15850      3.03%     98.09% # attempts to use FU when none available
system.switch_cpus.iq.fu_full::FloatMemRead         4647      0.89%     98.98% # attempts to use FU when none available
system.switch_cpus.iq.fu_full::FloatMemWrite         5323      1.02%    100.00% # attempts to use FU when none available
system.switch_cpus.iq.fu_full::IprAccess            0      0.00%    100.00% # attempts to use FU when none available
system.switch_cpus.iq.fu_full::InstPrefetch            0      0.00%    100.00% # attempts to use FU when none available
system.switch_cpus.iq.int_alu_accesses       35783326                       # Number of integer alu accesses
system.switch_cpus.iq.int_inst_queue_reads    116364041                       # Number of integer instruction queue reads
system.switch_cpus.iq.int_inst_queue_wakeup_accesses     33230214                       # Number of integer instruction queue wakeup accesses
system.switch_cpus.iq.int_inst_queue_writes     65896945                       # Number of integer instruction queue writes
system.switch_cpus.iq.iqInstsAdded           43128732                       # Number of instructions added to the IQ (excludes non-spec)
system.switch_cpus.iq.iqInstsIssued          36225516                       # Number of instructions issued
system.switch_cpus.iq.iqNonSpecInstsAdded        90347                       # Number of non-speculative instructions added to the IQ
system.switch_cpus.iq.iqSquashedInstsExamined     23300947                       # Number of squashed instructions iterated over during squash; mainly for profiling
system.switch_cpus.iq.iqSquashedInstsIssued       207928                       # Number of squashed instructions issued
system.switch_cpus.iq.iqSquashedNonSpecRemoved        88436                       # Number of squashed non-spec instructions that were removed
system.switch_cpus.iq.iqSquashedOperandsExamined     29896017                       # Number of squashed operands that are examined and possibly removed from graph
system.switch_cpus.iq.issued_per_cycle::samples     43901490                       # Number of insts issued each cycle
system.switch_cpus.iq.issued_per_cycle::mean     0.825155                       # Number of insts issued each cycle
system.switch_cpus.iq.issued_per_cycle::stdev     1.763485                       # Number of insts issued each cycle
system.switch_cpus.iq.issued_per_cycle::underflows            0      0.00%      0.00% # Number of insts issued each cycle
system.switch_cpus.iq.issued_per_cycle::0     33130959     75.47%     75.47% # Number of insts issued each cycle
system.switch_cpus.iq.issued_per_cycle::1      2643986      6.02%     81.49% # Number of insts issued each cycle
system.switch_cpus.iq.issued_per_cycle::2      1994623      4.54%     86.03% # Number of insts issued each cycle
system.switch_cpus.iq.issued_per_cycle::3      1431309      3.26%     89.29% # Number of insts issued each cycle
system.switch_cpus.iq.issued_per_cycle::4      1401616      3.19%     92.49% # Number of insts issued each cycle
system.switch_cpus.iq.issued_per_cycle::5      1263688      2.88%     95.36% # Number of insts issued each cycle
system.switch_cpus.iq.issued_per_cycle::6      1136585      2.59%     97.95% # Number of insts issued each cycle
system.switch_cpus.iq.issued_per_cycle::7       635849      1.45%     99.40% # Number of insts issued each cycle
system.switch_cpus.iq.issued_per_cycle::8       262875      0.60%    100.00% # Number of insts issued each cycle
system.switch_cpus.iq.issued_per_cycle::overflows            0      0.00%    100.00% # Number of insts issued each cycle
system.switch_cpus.iq.issued_per_cycle::min_value            0                       # Number of insts issued each cycle
system.switch_cpus.iq.issued_per_cycle::max_value            8                       # Number of insts issued each cycle
system.switch_cpus.iq.issued_per_cycle::total     43901490                       # Number of insts issued each cycle
system.switch_cpus.iq.rate                   0.391350                       # Inst issue rate
system.switch_cpus.iq.vec_alu_accesses              0                       # Number of vector alu accesses
system.switch_cpus.iq.vec_inst_queue_reads            0                       # Number of vector instruction queue reads
system.switch_cpus.iq.vec_inst_queue_wakeup_accesses            0                       # Number of vector instruction queue wakeup accesses
system.switch_cpus.iq.vec_inst_queue_writes            0                       # Number of vector instruction queue writes
system.switch_cpus.itb.rdAccesses                   0                       # TLB accesses on read requests
system.switch_cpus.itb.rdMisses                     0                       # TLB misses on read requests
system.switch_cpus.itb.wrAccesses             3542729                       # TLB accesses on write requests
system.switch_cpus.itb.wrMisses                103729                       # TLB misses on write requests
system.switch_cpus.memDep0.conflictingLoads       252842                       # Number of conflicting loads.
system.switch_cpus.memDep0.conflictingStores       229150                       # Number of conflicting stores.
system.switch_cpus.memDep0.insertedLoads      5506920                       # Number of loads inserted to the mem dependence unit.
system.switch_cpus.memDep0.insertedStores      3061667                       # Number of stores inserted to the mem dependence unit.
system.switch_cpus.misc_regfile_reads        15801296                       # number of misc regfile reads
system.switch_cpus.misc_regfile_writes            292                       # number of misc regfile writes
system.switch_cpus.numCycles                 92565482                       # number of cpu cycles simulated
system.switch_cpus.numWorkItemsCompleted            0                       # number of work items this cpu completed
system.switch_cpus.numWorkItemsStarted              0                       # number of work items this cpu started
system.switch_cpus.rename.BlockCycles        10236152                       # Number of cycles rename is blocking
system.switch_cpus.rename.CommittedMaps      22211260                       # Number of HB maps that are committed
system.switch_cpus.rename.IQFullEvents         398775                       # Number of times rename has blocked due to IQ full
system.switch_cpus.rename.IdleCycles         24272569                       # Number of cycles rename is idle
system.switch_cpus.rename.LQFullEvents         155313                       # Number of times rename has blocked due to LQ full
system.switch_cpus.rename.ROBFullEvents        180277                       # Number of times rename has blocked due to ROB full
system.switch_cpus.rename.RenameLookups     114398420                       # Number of register rename lookups that rename has made
system.switch_cpus.rename.RenamedInsts       47833742                       # Number of instructions processed by rename
system.switch_cpus.rename.RenamedOperands     51436024                       # Number of destination operands rename has renamed
system.switch_cpus.rename.RunCycles           6817161                       # Number of cycles rename is running
system.switch_cpus.rename.SQFullEvents         777196                       # Number of times rename has blocked due to SQ full
system.switch_cpus.rename.SquashCycles        1042846                       # Number of cycles rename is squashing
system.switch_cpus.rename.UnblockCycles       1515353                       # Number of cycles rename is unblocking
system.switch_cpus.rename.UndoneMaps         29224764                       # Number of HB maps that are undone due to squashing
system.switch_cpus.rename.fp_rename_lookups       598240                       # Number of floating rename lookups
system.switch_cpus.rename.int_rename_lookups     66922708                       # Number of integer rename lookups
system.switch_cpus.rename.serializeStallCycles        17408                       # count of cycles rename stalled for serializing inst
system.switch_cpus.rename.serializingInsts          553                       # count of serializing insts renamed
system.switch_cpus.rename.skidInsts           2046084                       # count of insts added to the skid buffer
system.switch_cpus.rename.tempSerializingInsts          493                       # count of temporary serializing insts renamed
system.switch_cpus.rob.rob_reads             82044264                       # The number of ROB reads
system.switch_cpus.rob.rob_writes            90646538                       # The number of ROB writes
system.switch_cpus.timesIdled                  701252                       # Number of times that the entire CPU went into an idle state and unscheduled itself
system.tol2bus.snoop_filter.hit_multi_requests         3575                       # Number of requests hitting in the snoop filter with multiple (>1) holders of the requested data.
system.tol2bus.snoop_filter.hit_multi_snoops         1287                       # Number of snoops hitting in the snoop filter with multiple (>1) holders of the requested data.
system.tol2bus.snoop_filter.hit_single_requests      1742626                       # Number of requests hitting in the snoop filter with a single holder of the requested data.
system.tol2bus.snoop_filter.hit_single_snoops       863257                       # Number of snoops hitting in the snoop filter with a single holder of the requested data.
system.tol2bus.snoop_filter.tot_requests      3485536                       # Total number of requests made to the snoop filter.
system.tol2bus.snoop_filter.tot_snoops         864544                       # Total number of snoops made to the snoop filter.
system.membus.trans_dist::ReadResp             891677                       # Transaction distribution
system.membus.trans_dist::WritebackDirty        94717                       # Transaction distribution
system.membus.trans_dist::CleanEvict           845450                       # Transaction distribution
system.membus.trans_dist::UpgradeReq              112                       # Transaction distribution
system.membus.trans_dist::ReadExReq             49340                       # Transaction distribution
system.membus.trans_dist::ReadExResp            49340                       # Transaction distribution
system.membus.trans_dist::ReadSharedReq        891677                       # Transaction distribution
system.membus.pkt_count_system.l2.mem_side::system.mem_ctrls.port      2822313                       # Packet count per connected master and slave (bytes)
system.membus.pkt_count_system.l2.mem_side::total      2822313                       # Packet count per connected master and slave (bytes)
system.membus.pkt_count::total                2822313                       # Packet count per connected master and slave (bytes)
system.membus.pkt_size_system.l2.mem_side::system.mem_ctrls.port     66286976                       # Cumulative packet size per connected master and slave (bytes)
system.membus.pkt_size_system.l2.mem_side::total     66286976                       # Cumulative packet size per connected master and slave (bytes)
system.membus.pkt_size::total                66286976                       # Cumulative packet size per connected master and slave (bytes)
system.membus.snoops                                0                       # Total snoops (count)
system.membus.snoopTraffic                          0                       # Total snoop traffic (bytes)
system.membus.snoop_fanout::samples            941129                       # Request fanout histogram
system.membus.snoop_fanout::mean                    0                       # Request fanout histogram
system.membus.snoop_fanout::stdev                   0                       # Request fanout histogram
system.membus.snoop_fanout::underflows              0      0.00%      0.00% # Request fanout histogram
system.membus.snoop_fanout::0                  941129    100.00%    100.00% # Request fanout histogram
system.membus.snoop_fanout::1                       0      0.00%    100.00% # Request fanout histogram
system.membus.snoop_fanout::overflows               0      0.00%    100.00% # Request fanout histogram
system.membus.snoop_fanout::min_value               0                       # Request fanout histogram
system.membus.snoop_fanout::max_value               0                       # Request fanout histogram
system.membus.snoop_fanout::total              941129                       # Request fanout histogram
system.membus.reqLayer2.occupancy          2526485000                       # Layer occupancy (ticks)
system.membus.reqLayer2.utilization               5.5                       # Layer utilization (%)
system.membus.respLayer1.occupancy         5029518750                       # Layer occupancy (ticks)
system.membus.respLayer1.utilization             10.9                       # Layer utilization (%)
system.membus.power_state.pwrStateResidencyTicks::UNDEFINED  46282751500                       # Cumulative time (in ticks) in various power states
system.switch_cpus.dtb.walker.power_state.pwrStateResidencyTicks::UNDEFINED  46282751500                       # Cumulative time (in ticks) in various power states
system.switch_cpus.itb.walker.power_state.pwrStateResidencyTicks::UNDEFINED  46282751500                       # Cumulative time (in ticks) in various power states
system.switch_cpus.power_state.pwrStateResidencyTicks::OFF  46282751500                       # Cumulative time (in ticks) in various power states
system.tol2bus.trans_dist::ReadResp           1638539                       # Transaction distribution
system.tol2bus.trans_dist::WritebackDirty       353825                       # Transaction distribution
system.tol2bus.trans_dist::WritebackClean      1088902                       # Transaction distribution
system.tol2bus.trans_dist::CleanEvict         1854816                       # Transaction distribution
system.tol2bus.trans_dist::UpgradeReq             190                       # Transaction distribution
system.tol2bus.trans_dist::UpgradeResp            190                       # Transaction distribution
system.tol2bus.trans_dist::ReadExReq           104267                       # Transaction distribution
system.tol2bus.trans_dist::ReadExResp          104266                       # Transaction distribution
system.tol2bus.trans_dist::ReadCleanReq       1089103                       # Transaction distribution
system.tol2bus.trans_dist::ReadSharedReq       549436                       # Transaction distribution
system.tol2bus.pkt_count_system.cpu.icache.mem_side::system.l2.cpu_side      3266826                       # Packet count per connected master and slave (bytes)
system.tol2bus.pkt_count_system.cpu.dcache.mem_side::system.l2.cpu_side      1961423                       # Packet count per connected master and slave (bytes)
system.tol2bus.pkt_count::total               5228249                       # Packet count per connected master and slave (bytes)
system.tol2bus.pkt_size_system.cpu.icache.mem_side::system.l2.cpu_side    139374272                       # Cumulative packet size per connected master and slave (bytes)
system.tol2bus.pkt_size_system.cpu.dcache.mem_side::system.l2.cpu_side     58419840                       # Cumulative packet size per connected master and slave (bytes)
system.tol2bus.pkt_size::total              197794112                       # Cumulative packet size per connected master and slave (bytes)
system.tol2bus.snoops                         1555285                       # Total snoops (count)
system.tol2bus.snoopTraffic                   6079936                       # Total snoop traffic (bytes)
system.tol2bus.snoop_fanout::samples          3297999                       # Request fanout histogram
system.tol2bus.snoop_fanout::mean            0.263618                       # Request fanout histogram
system.tol2bus.snoop_fanout::stdev           0.441479                       # Request fanout histogram
system.tol2bus.snoop_fanout::underflows             0      0.00%      0.00% # Request fanout histogram
system.tol2bus.snoop_fanout::0                2429875     73.68%     73.68% # Request fanout histogram
system.tol2bus.snoop_fanout::1                 866837     26.28%     99.96% # Request fanout histogram
system.tol2bus.snoop_fanout::2                   1287      0.04%    100.00% # Request fanout histogram
system.tol2bus.snoop_fanout::3                      0      0.00%    100.00% # Request fanout histogram
system.tol2bus.snoop_fanout::4                      0      0.00%    100.00% # Request fanout histogram
system.tol2bus.snoop_fanout::overflows              0      0.00%    100.00% # Request fanout histogram
system.tol2bus.snoop_fanout::min_value              0                       # Request fanout histogram
system.tol2bus.snoop_fanout::max_value              2                       # Request fanout histogram
system.tol2bus.snoop_fanout::total            3297999                       # Request fanout histogram
system.tol2bus.reqLayer0.occupancy         3090776500                       # Layer occupancy (ticks)
system.tol2bus.reqLayer0.utilization              6.7                       # Layer utilization (%)
system.tol2bus.respLayer1.occupancy         981415459                       # Layer occupancy (ticks)
system.tol2bus.respLayer1.utilization             2.1                       # Layer utilization (%)
system.tol2bus.respLayer0.occupancy        1634449401                       # Layer occupancy (ticks)
system.tol2bus.respLayer0.utilization             3.5                       # Layer utilization (%)
system.tol2bus.power_state.pwrStateResidencyTicks::UNDEFINED  46282751500                       # Cumulative time (in ticks) in various power states
system.voltage_domain.voltage                       1                       # Voltage in Volts
system.clk_domain.clock                          1000                       # Clock period in ticks
system.l2.demand_hits::.switch_cpus.inst       519762                       # number of demand (read+write) hits
system.l2.demand_hits::.switch_cpus.data       281723                       # number of demand (read+write) hits
system.l2.demand_hits::total                   801485                       # number of demand (read+write) hits
system.l2.overall_hits::.switch_cpus.inst       519762                       # number of overall hits
system.l2.overall_hits::.switch_cpus.data       281723                       # number of overall hits
system.l2.overall_hits::total                  801485                       # number of overall hits
system.l2.demand_misses::.cpu.inst                  2                       # number of demand (read+write) misses
system.l2.demand_misses::.cpu.data                  1                       # number of demand (read+write) misses
system.l2.demand_misses::.switch_cpus.inst       569057                       # number of demand (read+write) misses
system.l2.demand_misses::.switch_cpus.data       371979                       # number of demand (read+write) misses
system.l2.demand_misses::total                 941039                       # number of demand (read+write) misses
system.l2.overall_misses::.cpu.inst                 2                       # number of overall misses
system.l2.overall_misses::.cpu.data                 1                       # number of overall misses
system.l2.overall_misses::.switch_cpus.inst       569057                       # number of overall misses
system.l2.overall_misses::.switch_cpus.data       371979                       # number of overall misses
system.l2.overall_misses::total                941039                       # number of overall misses
system.l2.demand_miss_latency::.switch_cpus.inst  46906999000                       # number of demand (read+write) miss cycles
system.l2.demand_miss_latency::.switch_cpus.data  31005956500                       # number of demand (read+write) miss cycles
system.l2.demand_miss_latency::total      77912955500                       # number of demand (read+write) miss cycles
system.l2.overall_miss_latency::.switch_cpus.inst  46906999000                       # number of overall miss cycles
system.l2.overall_miss_latency::.switch_cpus.data  31005956500                       # number of overall miss cycles
system.l2.overall_miss_latency::total     77912955500                       # number of overall miss cycles
system.l2.demand_accesses::.cpu.inst                2                       # number of demand (read+write) accesses
system.l2.demand_accesses::.cpu.data                1                       # number of demand (read+write) accesses
system.l2.demand_accesses::.switch_cpus.inst      1088819                       # number of demand (read+write) accesses
system.l2.demand_accesses::.switch_cpus.data       653702                       # number of demand (read+write) accesses
system.l2.demand_accesses::total              1742524                       # number of demand (read+write) accesses
system.l2.overall_accesses::.cpu.inst               2                       # number of overall (read+write) accesses
system.l2.overall_accesses::.cpu.data               1                       # number of overall (read+write) accesses
system.l2.overall_accesses::.switch_cpus.inst      1088819                       # number of overall (read+write) accesses
system.l2.overall_accesses::.switch_cpus.data       653702                       # number of overall (read+write) accesses
system.l2.overall_accesses::total             1742524                       # number of overall (read+write) accesses
system.l2.demand_miss_rate::.cpu.inst               1                       # miss rate for demand accesses
system.l2.demand_miss_rate::.cpu.data               1                       # miss rate for demand accesses
system.l2.demand_miss_rate::.switch_cpus.inst     0.522637                       # miss rate for demand accesses
system.l2.demand_miss_rate::.switch_cpus.data     0.569035                       # miss rate for demand accesses
system.l2.demand_miss_rate::total            0.540044                       # miss rate for demand accesses
system.l2.overall_miss_rate::.cpu.inst              1                       # miss rate for overall accesses
system.l2.overall_miss_rate::.cpu.data              1                       # miss rate for overall accesses
system.l2.overall_miss_rate::.switch_cpus.inst     0.522637                       # miss rate for overall accesses
system.l2.overall_miss_rate::.switch_cpus.data     0.569035                       # miss rate for overall accesses
system.l2.overall_miss_rate::total           0.540044                       # miss rate for overall accesses
system.l2.demand_avg_miss_latency::.switch_cpus.inst 82429.350663                       # average overall miss latency
system.l2.demand_avg_miss_latency::.switch_cpus.data 83354.050901                       # average overall miss latency
system.l2.demand_avg_miss_latency::total 82794.608406                       # average overall miss latency
system.l2.overall_avg_miss_latency::.switch_cpus.inst 82429.350663                       # average overall miss latency
system.l2.overall_avg_miss_latency::.switch_cpus.data 83354.050901                       # average overall miss latency
system.l2.overall_avg_miss_latency::total 82794.608406                       # average overall miss latency
system.l2.blocked_cycles::no_mshrs                  0                       # number of cycles access was blocked
system.l2.blocked_cycles::no_targets                0                       # number of cycles access was blocked
system.l2.blocked::no_mshrs                         0                       # number of cycles access was blocked
system.l2.blocked::no_targets                       0                       # number of cycles access was blocked
system.l2.avg_blocked_cycles::no_mshrs            nan                       # average number of cycles each access was blocked
system.l2.avg_blocked_cycles::no_targets          nan                       # average number of cycles each access was blocked
system.l2.writebacks::.writebacks               94717                       # number of writebacks
system.l2.writebacks::total                     94717                       # number of writebacks
system.l2.demand_mshr_hits::.switch_cpus.inst           18                       # number of demand (read+write) MSHR hits
system.l2.demand_mshr_hits::.switch_cpus.data            1                       # number of demand (read+write) MSHR hits
system.l2.demand_mshr_hits::total                  19                       # number of demand (read+write) MSHR hits
system.l2.overall_mshr_hits::.switch_cpus.inst           18                       # number of overall MSHR hits
system.l2.overall_mshr_hits::.switch_cpus.data            1                       # number of overall MSHR hits
system.l2.overall_mshr_hits::total                 19                       # number of overall MSHR hits
system.l2.demand_mshr_misses::.switch_cpus.inst       569039                       # number of demand (read+write) MSHR misses
system.l2.demand_mshr_misses::.switch_cpus.data       371978                       # number of demand (read+write) MSHR misses
system.l2.demand_mshr_misses::total            941017                       # number of demand (read+write) MSHR misses
system.l2.overall_mshr_misses::.switch_cpus.inst       569039                       # number of overall MSHR misses
system.l2.overall_mshr_misses::.switch_cpus.data       371978                       # number of overall MSHR misses
system.l2.overall_mshr_misses::total           941017                       # number of overall MSHR misses
system.l2.demand_mshr_miss_latency::.switch_cpus.inst  41215480000                       # number of demand (read+write) MSHR miss cycles
system.l2.demand_mshr_miss_latency::.switch_cpus.data  27286162500                       # number of demand (read+write) MSHR miss cycles
system.l2.demand_mshr_miss_latency::total  68501642500                       # number of demand (read+write) MSHR miss cycles
system.l2.overall_mshr_miss_latency::.switch_cpus.inst  41215480000                       # number of overall MSHR miss cycles
system.l2.overall_mshr_miss_latency::.switch_cpus.data  27286162500                       # number of overall MSHR miss cycles
system.l2.overall_mshr_miss_latency::total  68501642500                       # number of overall MSHR miss cycles
system.l2.demand_mshr_miss_rate::.switch_cpus.inst     0.522620                       # mshr miss rate for demand accesses
system.l2.demand_mshr_miss_rate::.switch_cpus.data     0.569033                       # mshr miss rate for demand accesses
system.l2.demand_mshr_miss_rate::total       0.540031                       # mshr miss rate for demand accesses
system.l2.overall_mshr_miss_rate::.switch_cpus.inst     0.522620                       # mshr miss rate for overall accesses
system.l2.overall_mshr_miss_rate::.switch_cpus.data     0.569033                       # mshr miss rate for overall accesses
system.l2.overall_mshr_miss_rate::total      0.540031                       # mshr miss rate for overall accesses
system.l2.demand_avg_mshr_miss_latency::.switch_cpus.inst 72429.974044                       # average overall mshr miss latency
system.l2.demand_avg_mshr_miss_latency::.switch_cpus.data 73354.237347                       # average overall mshr miss latency
system.l2.demand_avg_mshr_miss_latency::total 72795.329415                       # average overall mshr miss latency
system.l2.overall_avg_mshr_miss_latency::.switch_cpus.inst 72429.974044                       # average overall mshr miss latency
system.l2.overall_avg_mshr_miss_latency::.switch_cpus.data 73354.237347                       # average overall mshr miss latency
system.l2.overall_avg_mshr_miss_latency::total 72795.329415                       # average overall mshr miss latency
system.l2.replacements                        1555003                       # number of replacements
system.l2.WritebackDirty_hits::.writebacks       259108                       # number of WritebackDirty hits
system.l2.WritebackDirty_hits::total           259108                       # number of WritebackDirty hits
system.l2.WritebackDirty_accesses::.writebacks       259108                       # number of WritebackDirty accesses(hits+misses)
system.l2.WritebackDirty_accesses::total       259108                       # number of WritebackDirty accesses(hits+misses)
system.l2.WritebackClean_hits::.writebacks      1088650                       # number of WritebackClean hits
system.l2.WritebackClean_hits::total          1088650                       # number of WritebackClean hits
system.l2.WritebackClean_accesses::.writebacks      1088650                       # number of WritebackClean accesses(hits+misses)
system.l2.WritebackClean_accesses::total      1088650                       # number of WritebackClean accesses(hits+misses)
system.l2.CleanEvict_mshr_misses::.writebacks       248917                       # number of CleanEvict MSHR misses
system.l2.CleanEvict_mshr_misses::total        248917                       # number of CleanEvict MSHR misses
system.l2.CleanEvict_mshr_miss_rate::.writebacks          inf                       # mshr miss rate for CleanEvict accesses
system.l2.CleanEvict_mshr_miss_rate::total          inf                       # mshr miss rate for CleanEvict accesses
system.l2.UpgradeReq_hits::.switch_cpus.data           80                       # number of UpgradeReq hits
system.l2.UpgradeReq_hits::total                   80                       # number of UpgradeReq hits
system.l2.UpgradeReq_misses::.switch_cpus.data          110                       # number of UpgradeReq misses
system.l2.UpgradeReq_misses::total                110                       # number of UpgradeReq misses
system.l2.UpgradeReq_miss_latency::.switch_cpus.data       378500                       # number of UpgradeReq miss cycles
system.l2.UpgradeReq_miss_latency::total       378500                       # number of UpgradeReq miss cycles
system.l2.UpgradeReq_accesses::.switch_cpus.data          190                       # number of UpgradeReq accesses(hits+misses)
system.l2.UpgradeReq_accesses::total              190                       # number of UpgradeReq accesses(hits+misses)
system.l2.UpgradeReq_miss_rate::.switch_cpus.data     0.578947                       # miss rate for UpgradeReq accesses
system.l2.UpgradeReq_miss_rate::total        0.578947                       # miss rate for UpgradeReq accesses
system.l2.UpgradeReq_avg_miss_latency::.switch_cpus.data  3440.909091                       # average UpgradeReq miss latency
system.l2.UpgradeReq_avg_miss_latency::total  3440.909091                       # average UpgradeReq miss latency
system.l2.UpgradeReq_mshr_misses::.switch_cpus.data          110                       # number of UpgradeReq MSHR misses
system.l2.UpgradeReq_mshr_misses::total           110                       # number of UpgradeReq MSHR misses
system.l2.UpgradeReq_mshr_miss_latency::.switch_cpus.data      2159000                       # number of UpgradeReq MSHR miss cycles
system.l2.UpgradeReq_mshr_miss_latency::total      2159000                       # number of UpgradeReq MSHR miss cycles
system.l2.UpgradeReq_mshr_miss_rate::.switch_cpus.data     0.578947                       # mshr miss rate for UpgradeReq accesses
system.l2.UpgradeReq_mshr_miss_rate::total     0.578947                       # mshr miss rate for UpgradeReq accesses
system.l2.UpgradeReq_avg_mshr_miss_latency::.switch_cpus.data 19627.272727                       # average UpgradeReq mshr miss latency
system.l2.UpgradeReq_avg_mshr_miss_latency::total 19627.272727                       # average UpgradeReq mshr miss latency
system.l2.ReadExReq_hits::.switch_cpus.data        54924                       # number of ReadExReq hits
system.l2.ReadExReq_hits::total                 54924                       # number of ReadExReq hits
system.l2.ReadExReq_misses::.cpu.data               1                       # number of ReadExReq misses
[...]
system.cpu.itb_walker_cache.blocked_cycles::no_mshrs            0                       # number of cycles access was blocked
system.cpu.itb_walker_cache.blocked_cycles::no_targets            0                       # number of cycles access was blocked
system.cpu.itb_walker_cache.blocked::no_mshrs            0                       # number of cycles access was blocked
system.cpu.itb_walker_cache.blocked::no_targets            0                       # number of cycles access was blocked
system.cpu.itb_walker_cache.avg_blocked_cycles::no_mshrs          nan                       # average number of cycles each access was blocked
system.cpu.itb_walker_cache.avg_blocked_cycles::no_targets          nan                       # average number of cycles each access was blocked
system.cpu.itb_walker_cache.replacements            0                       # number of replacements
system.cpu.itb_walker_cache.power_state.pwrStateResidencyTicks::UNDEFINED  97452482000                       # Cumulative time (in ticks) in various power states
system.cpu.itb_walker_cache.tags.tagsinuse            0                       # Cycle average of tags in use
system.cpu.itb_walker_cache.tags.total_refs            0                       # Total number of references to valid blocks.
system.cpu.itb_walker_cache.tags.sampled_refs            0                       # Sample count of references to valid blocks.
system.cpu.itb_walker_cache.tags.avg_refs          nan                       # Average number of references to valid blocks.
system.cpu.itb_walker_cache.tags.warmup_cycle            0                       # Cycle when the warmup percentage was hit.
system.cpu.itb_walker_cache.tags.tag_accesses            0                       # Number of tag accesses
system.cpu.itb_walker_cache.tags.data_accesses            0                       # Number of data accesses
system.cpu.itb_walker_cache.tags.power_state.pwrStateResidencyTicks::UNDEFINED  97452482000                       # Cumulative time (in ticks) in various power states
system.cpu.itb.walker.power_state.pwrStateResidencyTicks::UNDEFINED  97452482000                       # Cumulative time (in ticks) in various power states
system.cpu.dtb_walker_cache.blocked_cycles::no_mshrs            0                       # number of cycles access was blocked
system.cpu.dtb_walker_cache.blocked_cycles::no_targets            0                       # number of cycles access was blocked
system.cpu.dtb_walker_cache.blocked::no_mshrs            0                       # number of cycles access was blocked
system.cpu.dtb_walker_cache.blocked::no_targets            0                       # number of cycles access was blocked
system.cpu.dtb_walker_cache.avg_blocked_cycles::no_mshrs          nan                       # average number of cycles each access was blocked
system.cpu.dtb_walker_cache.avg_blocked_cycles::no_targets          nan                       # average number of cycles each access was blocked
system.cpu.dtb_walker_cache.replacements            0                       # number of replacements
system.cpu.dtb_walker_cache.power_state.pwrStateResidencyTicks::UNDEFINED  97452482000                       # Cumulative time (in ticks) in various power states
system.cpu.dtb_walker_cache.tags.tagsinuse            0                       # Cycle average of tags in use
system.cpu.dtb_walker_cache.tags.total_refs            0                       # Total number of references to valid blocks.
system.cpu.dtb_walker_cache.tags.sampled_refs            0                       # Sample count of references to valid blocks.
system.cpu.dtb_walker_cache.tags.avg_refs          nan                       # Average number of references to valid blocks.
system.cpu.dtb_walker_cache.tags.warmup_cycle            0                       # Cycle when the warmup percentage was hit.
system.cpu.dtb_walker_cache.tags.tag_accesses            0                       # Number of tag accesses
system.cpu.dtb_walker_cache.tags.data_accesses            0                       # Number of data accesses
system.cpu.dtb_walker_cache.tags.power_state.pwrStateResidencyTicks::UNDEFINED  97452482000                       # Cumulative time (in ticks) in various power states
system.cpu.dcache.demand_hits::.cpu.data            6                       # number of demand (read+write) hits
system.cpu.dcache.demand_hits::.switch_cpus.data      9016699                       # number of demand (read+write) hits
system.cpu.dcache.demand_hits::total          9016705                       # number of demand (read+write) hits
system.cpu.dcache.overall_hits::.cpu.data            6                       # number of overall hits
system.cpu.dcache.overall_hits::.switch_cpus.data      9016699                       # number of overall hits
system.cpu.dcache.overall_hits::total         9016705                       # number of overall hits
system.cpu.dcache.demand_misses::.cpu.data            1                       # number of demand (read+write) misses
system.cpu.dcache.demand_misses::.switch_cpus.data      1999808                       # number of demand (read+write) misses
system.cpu.dcache.demand_misses::total        1999809                       # number of demand (read+write) misses
system.cpu.dcache.overall_misses::.cpu.data            1                       # number of overall misses
system.cpu.dcache.overall_misses::.switch_cpus.data      1999808                       # number of overall misses
system.cpu.dcache.overall_misses::total       1999809                       # number of overall misses
system.cpu.dcache.demand_miss_latency::.switch_cpus.data 112186998045                       # number of demand (read+write) miss cycles
system.cpu.dcache.demand_miss_latency::total 112186998045                       # number of demand (read+write) miss cycles
system.cpu.dcache.overall_miss_latency::.switch_cpus.data 112186998045                       # number of overall miss cycles
system.cpu.dcache.overall_miss_latency::total 112186998045                       # number of overall miss cycles
system.cpu.dcache.demand_accesses::.cpu.data            7                       # number of demand (read+write) accesses
system.cpu.dcache.demand_accesses::.switch_cpus.data     11016507                       # number of demand (read+write) accesses
system.cpu.dcache.demand_accesses::total     11016514                       # number of demand (read+write) accesses
system.cpu.dcache.overall_accesses::.cpu.data            7                       # number of overall (read+write) accesses
system.cpu.dcache.overall_accesses::.switch_cpus.data     11016507                       # number of overall (read+write) accesses
system.cpu.dcache.overall_accesses::total     11016514                       # number of overall (read+write) accesses
system.cpu.dcache.demand_miss_rate::.cpu.data     0.142857                       # miss rate for demand accesses
system.cpu.dcache.demand_miss_rate::.switch_cpus.data     0.181528                       # miss rate for demand accesses
system.cpu.dcache.demand_miss_rate::total     0.181528                       # miss rate for demand accesses
system.cpu.dcache.overall_miss_rate::.cpu.data     0.142857                       # miss rate for overall accesses
system.cpu.dcache.overall_miss_rate::.switch_cpus.data     0.181528                       # miss rate for overall accesses
system.cpu.dcache.overall_miss_rate::total     0.181528                       # miss rate for overall accesses
system.cpu.dcache.demand_avg_miss_latency::.switch_cpus.data 56098.884515                       # average overall miss latency
system.cpu.dcache.demand_avg_miss_latency::total 56098.856463                       # average overall miss latency
system.cpu.dcache.overall_avg_miss_latency::.switch_cpus.data 56098.884515                       # average overall miss latency
system.cpu.dcache.overall_avg_miss_latency::total 56098.856463                       # average overall miss latency
system.cpu.dcache.blocked_cycles::no_mshrs      5193327                       # number of cycles access was blocked
system.cpu.dcache.blocked_cycles::no_targets       519133                       # number of cycles access was blocked
system.cpu.dcache.blocked::no_mshrs            149841                       # number of cycles access was blocked
system.cpu.dcache.blocked::no_targets            3734                       # number of cycles access was blocked
system.cpu.dcache.avg_blocked_cycles::no_mshrs    34.658918                       # average number of cycles each access was blocked
system.cpu.dcache.avg_blocked_cycles::no_targets   139.028656                       # average number of cycles each access was blocked
system.cpu.dcache.writebacks::.writebacks       529916                       # number of writebacks
system.cpu.dcache.writebacks::total            529916                       # number of writebacks
system.cpu.dcache.demand_mshr_hits::.switch_cpus.data       609607                       # number of demand (read+write) MSHR hits
system.cpu.dcache.demand_mshr_hits::total       609607                       # number of demand (read+write) MSHR hits
system.cpu.dcache.overall_mshr_hits::.switch_cpus.data       609607                       # number of overall MSHR hits
system.cpu.dcache.overall_mshr_hits::total       609607                       # number of overall MSHR hits
system.cpu.dcache.demand_mshr_misses::.switch_cpus.data      1390201                       # number of demand (read+write) MSHR misses
system.cpu.dcache.demand_mshr_misses::total      1390201                       # number of demand (read+write) MSHR misses
system.cpu.dcache.overall_mshr_misses::.switch_cpus.data      1390201                       # number of overall MSHR misses
system.cpu.dcache.overall_mshr_misses::total      1390201                       # number of overall MSHR misses
system.cpu.dcache.demand_mshr_miss_latency::.switch_cpus.data  77164197473                       # number of demand (read+write) MSHR miss cycles
system.cpu.dcache.demand_mshr_miss_latency::total  77164197473                       # number of demand (read+write) MSHR miss cycles
system.cpu.dcache.overall_mshr_miss_latency::.switch_cpus.data  77164197473                       # number of overall MSHR miss cycles
system.cpu.dcache.overall_mshr_miss_latency::total  77164197473                       # number of overall MSHR miss cycles
system.cpu.dcache.demand_mshr_miss_rate::.switch_cpus.data     0.126193                       # mshr miss rate for demand accesses
system.cpu.dcache.demand_mshr_miss_rate::total     0.126192                       # mshr miss rate for demand accesses
system.cpu.dcache.overall_mshr_miss_rate::.switch_cpus.data     0.126193                       # mshr miss rate for overall accesses
system.cpu.dcache.overall_mshr_miss_rate::total     0.126192                       # mshr miss rate for overall accesses
system.cpu.dcache.demand_avg_mshr_miss_latency::.switch_cpus.data 55505.784756                       # average overall mshr miss latency
system.cpu.dcache.demand_avg_mshr_miss_latency::total 55505.784756                       # average overall mshr miss latency
system.cpu.dcache.overall_avg_mshr_miss_latency::.switch_cpus.data 55505.784756                       # average overall mshr miss latency
system.cpu.dcache.overall_avg_mshr_miss_latency::total 55505.784756                       # average overall mshr miss latency
system.cpu.dcache.replacements                1389560                       # number of replacements
system.cpu.dcache.ReadReq_hits::.switch_cpus.data      6224832                       # number of ReadReq hits
system.cpu.dcache.ReadReq_hits::total         6224832                       # number of ReadReq hits
system.cpu.dcache.ReadReq_misses::.switch_cpus.data      1787638                       # number of ReadReq misses
system.cpu.dcache.ReadReq_misses::total       1787638                       # number of ReadReq misses
system.cpu.dcache.ReadReq_miss_latency::.switch_cpus.data 102862061000                       # number of ReadReq miss cycles
system.cpu.dcache.ReadReq_miss_latency::total 102862061000                       # number of ReadReq miss cycles
system.cpu.dcache.ReadReq_accesses::.switch_cpus.data      8012470                       # number of ReadReq accesses(hits+misses)
system.cpu.dcache.ReadReq_accesses::total      8012470                       # number of ReadReq accesses(hits+misses)
system.cpu.dcache.ReadReq_miss_rate::.switch_cpus.data     0.223107                       # miss rate for ReadReq accesses
system.cpu.dcache.ReadReq_miss_rate::total     0.223107                       # miss rate for ReadReq accesses
system.cpu.dcache.ReadReq_avg_miss_latency::.switch_cpus.data 57540.766643                       # average ReadReq miss latency
system.cpu.dcache.ReadReq_avg_miss_latency::total 57540.766643                       # average ReadReq miss latency
system.cpu.dcache.ReadReq_mshr_hits::.switch_cpus.data       605032                       # number of ReadReq MSHR hits
system.cpu.dcache.ReadReq_mshr_hits::total       605032                       # number of ReadReq MSHR hits
system.cpu.dcache.ReadReq_mshr_misses::.switch_cpus.data      1182606                       # number of ReadReq MSHR misses
system.cpu.dcache.ReadReq_mshr_misses::total      1182606                       # number of ReadReq MSHR misses
system.cpu.dcache.ReadReq_mshr_miss_latency::.switch_cpus.data  68223100000                       # number of ReadReq MSHR miss cycles
system.cpu.dcache.ReadReq_mshr_miss_latency::total  68223100000                       # number of ReadReq MSHR miss cycles
system.cpu.dcache.ReadReq_mshr_miss_rate::.switch_cpus.data     0.147596                       # mshr miss rate for ReadReq accesses
system.cpu.dcache.ReadReq_mshr_miss_rate::total     0.147596                       # mshr miss rate for ReadReq accesses
system.cpu.dcache.ReadReq_avg_mshr_miss_latency::.switch_cpus.data 57688.782232                       # average ReadReq mshr miss latency
system.cpu.dcache.ReadReq_avg_mshr_miss_latency::total 57688.782232                       # average ReadReq mshr miss latency
system.cpu.dcache.WriteReq_hits::.cpu.data            6                       # number of WriteReq hits
system.cpu.dcache.WriteReq_hits::.switch_cpus.data      2791867                       # number of WriteReq hits
system.cpu.dcache.WriteReq_hits::total        2791873                       # number of WriteReq hits
system.cpu.dcache.WriteReq_misses::.cpu.data            1                       # number of WriteReq misses
system.cpu.dcache.WriteReq_misses::.switch_cpus.data       212170                       # number of WriteReq misses
system.cpu.dcache.WriteReq_misses::total       212171                       # number of WriteReq misses
system.cpu.dcache.WriteReq_miss_latency::.switch_cpus.data   9324937045                       # number of WriteReq miss cycles
system.cpu.dcache.WriteReq_miss_latency::total   9324937045                       # number of WriteReq miss cycles
system.cpu.dcache.WriteReq_accesses::.cpu.data            7                       # number of WriteReq accesses(hits+misses)
system.cpu.dcache.WriteReq_accesses::.switch_cpus.data      3004037                       # number of WriteReq accesses(hits+misses)
system.cpu.dcache.WriteReq_accesses::total      3004044                       # number of WriteReq accesses(hits+misses)
system.cpu.dcache.WriteReq_miss_rate::.cpu.data     0.142857                       # miss rate for WriteReq accesses
system.cpu.dcache.WriteReq_miss_rate::.switch_cpus.data     0.070628                       # miss rate for WriteReq accesses
system.cpu.dcache.WriteReq_miss_rate::total     0.070628                       # miss rate for WriteReq accesses
system.cpu.dcache.WriteReq_avg_miss_latency::.switch_cpus.data 43950.308927                       # average WriteReq miss latency
system.cpu.dcache.WriteReq_avg_miss_latency::total 43950.101781                       # average WriteReq miss latency
system.cpu.dcache.WriteReq_mshr_hits::.switch_cpus.data         4575                       # number of WriteReq MSHR hits
system.cpu.dcache.WriteReq_mshr_hits::total         4575                       # number of WriteReq MSHR hits
system.cpu.dcache.WriteReq_mshr_misses::.switch_cpus.data       207595                       # number of WriteReq MSHR misses
system.cpu.dcache.WriteReq_mshr_misses::total       207595                       # number of WriteReq MSHR misses
system.cpu.dcache.WriteReq_mshr_miss_latency::.switch_cpus.data   8941097473                       # number of WriteReq MSHR miss cycles
system.cpu.dcache.WriteReq_mshr_miss_latency::total   8941097473                       # number of WriteReq MSHR miss cycles
system.cpu.dcache.WriteReq_mshr_miss_rate::.switch_cpus.data     0.069105                       # mshr miss rate for WriteReq accesses
system.cpu.dcache.WriteReq_mshr_miss_rate::total     0.069105                       # mshr miss rate for WriteReq accesses
system.cpu.dcache.WriteReq_avg_mshr_miss_latency::.switch_cpus.data 43069.907623                       # average WriteReq mshr miss latency
system.cpu.dcache.WriteReq_avg_mshr_miss_latency::total 43069.907623                       # average WriteReq mshr miss latency
system.cpu.dcache.power_state.pwrStateResidencyTicks::UNDEFINED  97452482000                       # Cumulative time (in ticks) in various power states
system.cpu.dcache.tags.tagsinuse            63.998429                       # Cycle average of tags in use
system.cpu.dcache.tags.total_refs            10406974                       # Total number of references to valid blocks.
system.cpu.dcache.tags.sampled_refs           1389624                       # Sample count of references to valid blocks.
system.cpu.dcache.tags.avg_refs              7.489057                       # Average number of references to valid blocks.
system.cpu.dcache.tags.warmup_cycle              1500                       # Cycle when the warmup percentage was hit.
system.cpu.dcache.tags.occ_blocks::.cpu.data     0.000063                       # Average occupied blocks per requestor
system.cpu.dcache.tags.occ_blocks::.switch_cpus.data    63.998366                       # Average occupied blocks per requestor
system.cpu.dcache.tags.occ_percent::.cpu.data     0.000001                       # Average percentage of cache occupancy
system.cpu.dcache.tags.occ_percent::.switch_cpus.data     0.999974                       # Average percentage of cache occupancy
system.cpu.dcache.tags.occ_percent::total     0.999975                       # Average percentage of cache occupancy
system.cpu.dcache.tags.occ_task_id_blocks::1024           64                       # Occupied blocks per task id
system.cpu.dcache.tags.age_task_id_blocks_1024::0           18                       # Occupied blocks per task id
system.cpu.dcache.tags.age_task_id_blocks_1024::1           46                       # Occupied blocks per task id
system.cpu.dcache.tags.occ_task_id_percent::1024            1                       # Percentage of cache occupancy per task id
system.cpu.dcache.tags.tag_accesses          23422652                       # Number of tag accesses
system.cpu.dcache.tags.data_accesses         23422652                       # Number of data accesses
system.cpu.dcache.tags.power_state.pwrStateResidencyTicks::UNDEFINED  97452482000                       # Cumulative time (in ticks) in various power states
system.cpu.power_state.numTransitions               1                       # Number of power state transitions
system.cpu.power_state.pwrStateResidencyTicks::ON        10500                       # Cumulative time (in ticks) in various power states
system.cpu.power_state.pwrStateResidencyTicks::OFF  97452471500                       # Cumulative time (in ticks) in various power states

---------- End Simulation Statistics   ----------
