
---------- Begin Simulation Statistics ----------
final_tick                                 7981535500                       # Number of ticks from beginning of simulation (restored from checkpoints and never reset)
host_inst_rate                                 131875                       # Simulator instruction rate (inst/s)
host_mem_usage                                 864000                       # Number of bytes of host memory used
host_op_rate                                   233105                       # Simulator op (including micro ops) rate (op/s)
host_seconds                                    75.83                       # Real time elapsed on the host
host_tick_rate                              105256456                       # Simulator tick rate (ticks/s)
sim_freq                                 1000000000000                       # Frequency of simulated ticks
sim_insts                                    10000011                       # Number of instructions simulated
sim_ops                                      17676214                       # Number of ops (including micro ops) simulated
sim_seconds                                  0.007982                       # Number of seconds simulated
sim_ticks                                  7981535500                       # Number of ticks simulated
system.cpu.Branches                                 1                       # Number of branches fetched
system.cpu.committedInsts                          10                       # Number of instructions committed
system.cpu.committedOps                            21                       # Number of ops (including micro ops) committed
system.cpu.dtb.rdAccesses                           0                       # TLB accesses on read requests
system.cpu.dtb.rdMisses                             0                       # TLB misses on read requests
system.cpu.dtb.wrAccesses                           7                       # TLB accesses on write requests
system.cpu.dtb.wrMisses                             1                       # TLB misses on write requests
system.cpu.idle_fraction                            0                       # Percentage of idle cycles
system.cpu.itb.rdAccesses                           0                       # TLB accesses on read requests
system.cpu.itb.rdMisses                             0                       # TLB misses on read requests
system.cpu.itb.wrAccesses                          10                       # TLB accesses on write requests
system.cpu.itb.wrMisses                             0                       # TLB misses on write requests
system.cpu.not_idle_fraction                        1                       # Percentage of non-idle cycles
system.cpu.numCycles                               21                       # number of cpu cycles simulated
system.cpu.numWorkItemsCompleted                    0                       # number of work items this cpu completed
system.cpu.numWorkItemsStarted                      0                       # number of work items this cpu started
system.cpu.num_busy_cycles                         21                       # Number of busy cycles
system.cpu.num_cc_register_writes                   2                       # number of times the CC registers were written
system.cpu.num_conditional_control_insts            0                       # number of instructions that are conditional controls
system.cpu.num_fp_alu_accesses                      0                       # Number of float alu accesses
system.cpu.num_fp_insts                             0                       # number of float instructions
system.cpu.num_fp_register_reads                    0                       # number of times the floating registers were read
system.cpu.num_fp_register_writes                   0                       # number of times the floating registers were written
system.cpu.num_func_calls                           1                       # number of times a function call or return occured
system.cpu.num_idle_cycles                          0                       # Number of idle cycles
system.cpu.num_int_alu_accesses                    21                       # Number of integer alu accesses
system.cpu.num_int_insts                           21                       # number of integer instructions
system.cpu.num_int_register_reads                  47                       # number of times the integer registers were read
system.cpu.num_int_register_writes                 13                       # number of times the integer registers were written
system.cpu.num_load_insts                           0                       # Number of load instructions
system.cpu.num_mem_refs                             7                       # number of memory refs
system.cpu.num_store_insts                          7                       # Number of store instructions
system.cpu.num_vec_alu_accesses                     0                       # Number of vector alu accesses
system.cpu.num_vec_insts                            0                       # number of vector instructions
system.cpu.num_vec_register_reads                   0                       # number of times the vector registers were read
system.cpu.num_vec_register_writes                  0                       # number of times the vector registers were written
system.cpu.op_class::No_OpClass                     0      0.00%      0.00% # Class of executed instruction
system.cpu.op_class::IntAlu                        14     66.67%     66.67% # Class of executed instruction
system.cpu.op_class::IntMult                        0      0.00%     66.67% # Class of executed instruction
system.cpu.op_class::IntDiv                         0      0.00%     66.67% # Class of executed instruction
system.cpu.op_class::FloatAdd                       0      0.00%     66.67% # Class of executed instruction
system.cpu.op_class::FloatCmp                       0      0.00%     66.67% # Class of executed instruction
system.cpu.op_class::FloatCvt                       0      0.00%     66.67% # Class of executed instruction
system.cpu.op_class::FloatMult                      0      0.00%     66.67% # Class of executed instruction
system.cpu.op_class::FloatMultAcc                   0      0.00%     66.67% # Class of executed instruction
system.cpu.op_class::FloatDiv                       0      0.00%     66.67% # Class of executed instruction
system.cpu.op_class::FloatMisc                      0      0.00%     66.67% # Class of executed instruction
system.cpu.op_class::FloatSqrt                      0      0.00%     66.67% # Class of executed instruction
system.cpu.op_class::SimdAdd                        0      0.00%     66.67% # Class of executed instruction
system.cpu.op_class::SimdAddAcc                     0      0.00%     66.67% # Class of executed instruction
system.cpu.op_class::SimdAlu                        0      0.00%     66.67% # Class of executed instruction
system.cpu.op_class::SimdCmp                        0      0.00%     66.67% # Class of executed instruction
system.cpu.op_class::SimdCvt                        0      0.00%     66.67% # Class of executed instruction
system.cpu.op_class::SimdMisc                       0      0.00%     66.67% # Class of executed instruction
system.cpu.op_class::SimdMult                       0      0.00%     66.67% # Class of executed instruction
system.cpu.op_class::SimdMultAcc                    0      0.00%     66.67% # Class of executed instruction
system.cpu.op_class::SimdShift                      0      0.00%     66.67% # Class of executed instruction
system.cpu.op_class::SimdShiftAcc                   0      0.00%     66.67% # Class of executed instruction
system.cpu.op_class::SimdDiv                        0      0.00%     66.67% # Class of executed instruction
system.cpu.op_class::SimdSqrt                       0      0.00%     66.67% # Class of executed instruction
system.cpu.op_class::SimdFloatAdd                   0      0.00%     66.67% # Class of executed instruction
system.cpu.op_class::SimdFloatAlu                   0      0.00%     66.67% # Class of executed instruction
system.cpu.op_class::SimdFloatCmp                   0      0.00%     66.67% # Class of executed instruction
system.cpu.op_class::SimdFloatCvt                   0      0.00%     66.67% # Class of executed instruction
system.cpu.op_class::SimdFloatDiv                   0      0.00%     66.67% # Class of executed instruction
system.cpu.op_class::SimdFloatMisc                  0      0.00%     66.67% # Class of executed instruction
system.cpu.op_class::SimdFloatMult                  0      0.00%     66.67% # Class of executed instruction
system.cpu.op_class::SimdFloatMultAcc               0      0.00%     66.67% # Class of executed instruction
system.cpu.op_class::SimdFloatSqrt                  0      0.00%     66.67% # Class of executed instruction
system.cpu.op_class::SimdReduceAdd                  0      0.00%     66.67% # Class of executed instruction
system.cpu.op_class::SimdReduceAlu                  0      0.00%     66.67% # Class of executed instruction
system.cpu.op_class::SimdReduceCmp                  0      0.00%     66.67% # Class of executed instruction
system.cpu.op_class::SimdFloatReduceAdd             0      0.00%     66.67% # Class of executed instruction
system.cpu.op_class::SimdFloatReduceCmp             0      0.00%     66.67% # Class of executed instruction
system.cpu.op_class::SimdAes                        0      0.00%     66.67% # Class of executed instruction
system.cpu.op_class::SimdAesMix                     0      0.00%     66.67% # Class of executed instruction
system.cpu.op_class::SimdSha1Hash                   0      0.00%     66.67% # Class of executed instruction
system.cpu.op_class::SimdSha1Hash2                  0      0.00%     66.67% # Class of executed instruction
system.cpu.op_class::SimdSha256Hash                 0      0.00%     66.67% # Class of executed instruction
system.cpu.op_class::SimdSha256Hash2                0      0.00%     66.67% # Class of executed instruction
system.cpu.op_class::SimdShaSigma2                  0      0.00%     66.67% # Class of executed instruction
system.cpu.op_class::SimdShaSigma3                  0      0.00%     66.67% # Class of executed instruction
system.cpu.op_class::SimdPredAlu                    0      0.00%     66.67% # Class of executed instruction
system.cpu.op_class::MemRead                        0      0.00%     66.67% # Class of executed instruction
system.cpu.op_class::MemWrite                       7     33.33%    100.00% # Class of executed instruction
system.cpu.op_class::FloatMemRead                   0      0.00%    100.00% # Class of executed instruction
system.cpu.op_class::FloatMemWrite                  0      0.00%    100.00% # Class of executed instruction
system.cpu.op_class::IprAccess                      0      0.00%    100.00% # Class of executed instruction
system.cpu.op_class::InstPrefetch                   0      0.00%    100.00% # Class of executed instruction
system.cpu.op_class::total                         21                       # Class of executed instruction
system.cpu.workload.numSyscalls                    39                       # Number of system calls
system.membus.snoop_filter.hit_multi_requests            0                       # Number of requests hitting in the snoop filter with multiple (>1) holders of the requested data.
system.membus.snoop_filter.hit_multi_snoops            0                       # Number of snoops hitting in the snoop filter with multiple (>1) holders of the requested data.
system.membus.snoop_filter.hit_single_requests       223008                       # Number of requests hitting in the snoop filter with a single holder of the requested data.
system.membus.snoop_filter.hit_single_snoops            0                       # Number of snoops hitting in the snoop filter with a single holder of the requested data.
system.membus.snoop_filter.tot_requests        446339                       # Total number of requests made to the snoop filter.
system.membus.snoop_filter.tot_snoops               0                       # Total number of snoops made to the snoop filter.
system.switch_cpus.branchPred.BTBCorrect            0                       # Number of correct BTB predictions (this stat may not work properly.
system.switch_cpus.branchPred.BTBHitPct           nan                       # BTB Hit Percentage
system.switch_cpus.branchPred.BTBHits               0                       # Number of BTB hits
system.switch_cpus.branchPred.BTBLookups            0                       # Number of BTB lookups
system.switch_cpus.branchPred.RASInCorrect           12                       # Number of incorrect RAS predictions.
system.switch_cpus.branchPred.condIncorrect        12711                       # Number of conditional branches incorrect
system.switch_cpus.branchPred.condPredicted      1704179                       # Number of conditional branches predicted
system.switch_cpus.branchPred.indirectHits      1494933                       # Number of indirect target hits.
system.switch_cpus.branchPred.indirectLookups      1522234                       # Number of indirect predictor lookups.
system.switch_cpus.branchPred.indirectMisses        27301                       # Number of indirect misses.
system.switch_cpus.branchPred.lookups         1746121                       # Number of BP lookups
system.switch_cpus.branchPred.usedRAS           20414                       # Number of times the RAS was used to get a target.
system.switch_cpus.branchPredindirectMispredicted         6742                       # Number of mispredicted indirect branches.
system.switch_cpus.cc_regfile_reads           9433601                       # number of cc regfile reads
system.switch_cpus.cc_regfile_writes         10849713                       # number of cc regfile writes
system.switch_cpus.commit.amos                      0                       # Number of atomic instructions committed
system.switch_cpus.commit.branchMispredicts        13396                       # The number of times a branch was mispredicted
system.switch_cpus.commit.branches            1659082                       # Number of branches committed
system.switch_cpus.commit.bw_lim_events       1761914                       # number cycles where commit BW limit reached
system.switch_cpus.commit.commitNonSpecStalls          282                       # The number of times commit has been forced to stall to communicate backwards
system.switch_cpus.commit.commitSquashedInsts       469373                       # The number of squashed insts skipped by commit
system.switch_cpus.commit.committedInsts     10000001                       # Number of instructions committed
system.switch_cpus.commit.committedOps       17676193                       # Number of ops (including micro ops) committed
system.switch_cpus.commit.committed_per_cycle::samples     15672401                       # Number of insts commited each cycle
system.switch_cpus.commit.committed_per_cycle::mean     1.127855                       # Number of insts commited each cycle
system.switch_cpus.commit.committed_per_cycle::stdev     2.635904                       # Number of insts commited each cycle
system.switch_cpus.commit.committed_per_cycle::underflows            0      0.00%      0.00% # Number of insts commited each cycle
system.switch_cpus.commit.committed_per_cycle::0     12700597     81.04%     81.04% # Number of insts commited each cycle
system.switch_cpus.commit.committed_per_cycle::1       482853      3.08%     84.12% # Number of insts commited each cycle
system.switch_cpus.commit.committed_per_cycle::2        80598      0.51%     84.63% # Number of insts commited each cycle
system.switch_cpus.commit.committed_per_cycle::3       325366      2.08%     86.71% # Number of insts commited each cycle
system.switch_cpus.commit.committed_per_cycle::4        42013      0.27%     86.98% # Number of insts commited each cycle
system.switch_cpus.commit.committed_per_cycle::5        37642      0.24%     87.22% # Number of insts commited each cycle
system.switch_cpus.commit.committed_per_cycle::6        85454      0.55%     87.76% # Number of insts commited each cycle
system.switch_cpus.commit.committed_per_cycle::7       155964      1.00%     88.76% # Number of insts commited each cycle
system.switch_cpus.commit.committed_per_cycle::8      1761914     11.24%    100.00% # Number of insts commited each cycle
system.switch_cpus.commit.committed_per_cycle::overflows            0      0.00%    100.00% # Number of insts commited each cycle
system.switch_cpus.commit.committed_per_cycle::min_value            0                       # Number of insts commited each cycle
system.switch_cpus.commit.committed_per_cycle::max_value            8                       # Number of insts commited each cycle
system.switch_cpus.commit.committed_per_cycle::total     15672401                       # Number of insts commited each cycle
system.switch_cpus.commit.fp_insts             476832                       # Number of committed floating point instructions.
system.switch_cpus.commit.function_calls        15588                       # Number of function calls committed.
system.switch_cpus.commit.int_insts          17313384                       # Number of committed integer instructions.
system.switch_cpus.commit.loads               2812035                       # Number of loads committed
system.switch_cpus.commit.membars                 120                       # Number of memory barriers committed
system.switch_cpus.commit.op_class_0::No_OpClass        11916      0.07%      0.07% # Class of committed instruction
system.switch_cpus.commit.op_class_0::IntAlu     14025791     79.35%     79.42% # Class of committed instruction
system.switch_cpus.commit.op_class_0::IntMult         6231      0.04%     79.45% # Class of committed instruction
system.switch_cpus.commit.op_class_0::IntDiv         1795      0.01%     79.46% # Class of committed instruction
system.switch_cpus.commit.op_class_0::FloatAdd       147622      0.84%     80.30% # Class of committed instruction
system.switch_cpus.commit.op_class_0::FloatCmp            0      0.00%     80.30% # Class of committed instruction
system.switch_cpus.commit.op_class_0::FloatCvt          112      0.00%     80.30% # Class of committed instruction
system.switch_cpus.commit.op_class_0::FloatMult            0      0.00%     80.30% # Class of committed instruction
system.switch_cpus.commit.op_class_0::FloatMultAcc            0      0.00%     80.30% # Class of committed instruction
system.switch_cpus.commit.op_class_0::FloatDiv            0      0.00%     80.30% # Class of committed instruction
system.switch_cpus.commit.op_class_0::FloatMisc            0      0.00%     80.30% # Class of committed instruction
system.switch_cpus.commit.op_class_0::FloatSqrt            0      0.00%     80.30% # Class of committed instruction
system.switch_cpus.commit.op_class_0::SimdAdd            0      0.00%     80.30% # Class of committed instruction
system.switch_cpus.commit.op_class_0::SimdAddAcc            0      0.00%     80.30% # Class of committed instruction
system.switch_cpus.commit.op_class_0::SimdAlu           14      0.00%     80.30% # Class of committed instruction
system.switch_cpus.commit.op_class_0::SimdCmp            0      0.00%     80.30% # Class of committed instruction
system.switch_cpus.commit.op_class_0::SimdCvt           62      0.00%     80.30% # Class of committed instruction
system.switch_cpus.commit.op_class_0::SimdMisc        16541      0.09%     80.39% # Class of committed instruction
system.switch_cpus.commit.op_class_0::SimdMult            0      0.00%     80.39% # Class of committed instruction
system.switch_cpus.commit.op_class_0::SimdMultAcc            0      0.00%     80.39% # Class of committed instruction
system.switch_cpus.commit.op_class_0::SimdShift            0      0.00%     80.39% # Class of committed instruction
system.switch_cpus.commit.op_class_0::SimdShiftAcc            0      0.00%     80.39% # Class of committed instruction
system.switch_cpus.commit.op_class_0::SimdDiv            0      0.00%     80.39% # Class of committed instruction
system.switch_cpus.commit.op_class_0::SimdSqrt            0      0.00%     80.39% # Class of committed instruction
system.switch_cpus.commit.op_class_0::SimdFloatAdd        28658      0.16%     80.55% # Class of committed instruction
system.switch_cpus.commit.op_class_0::SimdFloatAlu            0      0.00%     80.55% # Class of committed instruction
system.switch_cpus.commit.op_class_0::SimdFloatCmp            0      0.00%     80.55% # Class of committed instruction
system.switch_cpus.commit.op_class_0::SimdFloatCvt        34832      0.20%     80.75% # Class of committed instruction
system.switch_cpus.commit.op_class_0::SimdFloatDiv           22      0.00%     80.75% # Class of committed instruction
system.switch_cpus.commit.op_class_0::SimdFloatMisc            0      0.00%     80.75% # Class of committed instruction
system.switch_cpus.commit.op_class_0::SimdFloatMult        49128      0.28%     81.03% # Class of committed instruction
system.switch_cpus.commit.op_class_0::SimdFloatMultAcc            0      0.00%     81.03% # Class of committed instruction
system.switch_cpus.commit.op_class_0::SimdFloatSqrt            0      0.00%     81.03% # Class of committed instruction
system.switch_cpus.commit.op_class_0::SimdReduceAdd            0      0.00%     81.03% # Class of committed instruction
system.switch_cpus.commit.op_class_0::SimdReduceAlu            0      0.00%     81.03% # Class of committed instruction
system.switch_cpus.commit.op_class_0::SimdReduceCmp            0      0.00%     81.03% # Class of committed instruction
system.switch_cpus.commit.op_class_0::SimdFloatReduceAdd            0      0.00%     81.03% # Class of committed instruction
system.switch_cpus.commit.op_class_0::SimdFloatReduceCmp            0      0.00%     81.03% # Class of committed instruction
system.switch_cpus.commit.op_class_0::SimdAes            0      0.00%     81.03% # Class of committed instruction
system.switch_cpus.commit.op_class_0::SimdAesMix            0      0.00%     81.03% # Class of committed instruction
system.switch_cpus.commit.op_class_0::SimdSha1Hash            0      0.00%     81.03% # Class of committed instruction
system.switch_cpus.commit.op_class_0::SimdSha1Hash2            0      0.00%     81.03% # Class of committed instruction
system.switch_cpus.commit.op_class_0::SimdSha256Hash            0      0.00%     81.03% # Class of committed instruction
system.switch_cpus.commit.op_class_0::SimdSha256Hash2            0      0.00%     81.03% # Class of committed instruction
system.switch_cpus.commit.op_class_0::SimdShaSigma2            0      0.00%     81.03% # Class of committed instruction
system.switch_cpus.commit.op_class_0::SimdShaSigma3            0      0.00%     81.03% # Class of committed instruction
system.switch_cpus.commit.op_class_0::SimdPredAlu            0      0.00%     81.03% # Class of committed instruction
system.switch_cpus.commit.op_class_0::MemRead      2729798     15.44%     96.47% # Class of committed instruction
system.switch_cpus.commit.op_class_0::MemWrite       497576      2.81%     99.29% # Class of committed instruction
system.switch_cpus.commit.op_class_0::FloatMemRead        82237      0.47%     99.75% # Class of committed instruction
system.switch_cpus.commit.op_class_0::FloatMemWrite        43858      0.25%    100.00% # Class of committed instruction
system.switch_cpus.commit.op_class_0::IprAccess            0      0.00%    100.00% # Class of committed instruction
system.switch_cpus.commit.op_class_0::InstPrefetch            0      0.00%    100.00% # Class of committed instruction
system.switch_cpus.commit.op_class_0::total     17676193                       # Class of committed instruction
system.switch_cpus.commit.refs                3353469                       # Number of memory references committed
system.switch_cpus.commit.swp_count                 0                       # Number of s/w prefetches committed
system.switch_cpus.commit.vec_insts                 0                       # Number of committed Vector instructions.
system.switch_cpus.committedInsts            10000001                       # Number of Instructions Simulated
system.switch_cpus.committedOps              17676193                       # Number of Ops (including micro ops) Simulated
system.switch_cpus.cpi                       1.596305                       # CPI: Cycles Per Instruction
system.switch_cpus.cpi_total                 1.596305                       # CPI: Total CPI of All Threads
system.switch_cpus.decode.BlockedCycles      12318415                       # Number of cycles decode is blocked
system.switch_cpus.decode.DecodedInsts       18291593                       # Number of instructions handled by decode
system.switch_cpus.decode.IdleCycles           811281                       # Number of cycles decode is idle
system.switch_cpus.decode.RunCycles           1834342                       # Number of cycles decode is running
system.switch_cpus.decode.SquashCycles          13657                       # Number of cycles decode is squashing
system.switch_cpus.decode.UnblockCycles        767590                       # Number of cycles decode is unblocking
system.switch_cpus.dtb.rdAccesses             2864542                       # TLB accesses on read requests
system.switch_cpus.dtb.rdMisses                  1926                       # TLB misses on read requests
system.switch_cpus.dtb.wrAccesses              553866                       # TLB accesses on write requests
system.switch_cpus.dtb.wrMisses                   601                       # TLB misses on write requests
system.switch_cpus.fetch.Branches             1746121                       # Number of branches that fetch encountered
system.switch_cpus.fetch.CacheLines           1350704                       # Number of cache lines fetched
system.switch_cpus.fetch.Cycles              14208014                       # Number of cycles fetch has run and was not squashing or blocked
system.switch_cpus.fetch.IcacheSquashes          5014                       # Number of outstanding Icache misses that were squashed
system.switch_cpus.fetch.IcacheWaitRetryStallCycles           44                       # Number of stall cycles due to full MSHR
system.switch_cpus.fetch.Insts               10401655                       # Number of instructions fetch has processed
system.switch_cpus.fetch.MiscStallCycles          736                       # Number of cycles fetch has spent waiting on interrupts, or bad addresses, or out of MSHRs
system.switch_cpus.fetch.PendingQuiesceStallCycles            7                       # Number of stall cycles due to pending quiesce instructions
system.switch_cpus.fetch.PendingTrapStallCycles         4718                       # Number of stall cycles due to pending traps
system.switch_cpus.fetch.SquashCycles           27314                       # Number of cycles fetch has spent squashing
system.switch_cpus.fetch.branchRate          0.109385                       # Number of branch fetches per cycle
system.switch_cpus.fetch.icacheStallCycles      1518111                       # Number of cycles fetch is stalled on an Icache miss
system.switch_cpus.fetch.predictedBranches      1515347                       # Number of branches that fetch has predicted taken
system.switch_cpus.fetch.rate                0.651608                       # Number of inst fetches per cycle
system.switch_cpus.fetch.rateDist::samples     15745287                       # Number of instructions fetched each cycle (Total)
system.switch_cpus.fetch.rateDist::mean      1.169881                       # Number of instructions fetched each cycle (Total)
system.switch_cpus.fetch.rateDist::stdev     2.508160                       # Number of instructions fetched each cycle (Total)
system.switch_cpus.fetch.rateDist::underflows            0      0.00%      0.00% # Number of instructions fetched each cycle (Total)
system.switch_cpus.fetch.rateDist::0         12417529     78.87%     78.87% # Number of instructions fetched each cycle (Total)
system.switch_cpus.fetch.rateDist::1           417291      2.65%     81.52% # Number of instructions fetched each cycle (Total)
system.switch_cpus.fetch.rateDist::2           102626      0.65%     82.17% # Number of instructions fetched each cycle (Total)
system.switch_cpus.fetch.rateDist::3            96771      0.61%     82.78% # Number of instructions fetched each cycle (Total)
system.switch_cpus.fetch.rateDist::4           145458      0.92%     83.71% # Number of instructions fetched each cycle (Total)
system.switch_cpus.fetch.rateDist::5           994533      6.32%     90.02% # Number of instructions fetched each cycle (Total)
system.switch_cpus.fetch.rateDist::6           200216      1.27%     91.29% # Number of instructions fetched each cycle (Total)
system.switch_cpus.fetch.rateDist::7           215438      1.37%     92.66% # Number of instructions fetched each cycle (Total)
system.switch_cpus.fetch.rateDist::8          1155425      7.34%    100.00% # Number of instructions fetched each cycle (Total)
system.switch_cpus.fetch.rateDist::overflows            0      0.00%    100.00% # Number of instructions fetched each cycle (Total)
system.switch_cpus.fetch.rateDist::min_value            0                       # Number of instructions fetched each cycle (Total)
system.switch_cpus.fetch.rateDist::max_value            8                       # Number of instructions fetched each cycle (Total)
system.switch_cpus.fetch.rateDist::total     15745287                       # Number of instructions fetched each cycle (Total)
system.switch_cpus.fp_regfile_reads            529240                       # number of floating regfile reads
system.switch_cpus.fp_regfile_writes           415981                       # number of floating regfile writes
system.switch_cpus.idleCycles                  217763                       # Total number of cycles that the CPU has spent unscheduled due to idling
system.switch_cpus.iew.branchMispredicts        16454                       # Number of branch mispredicts detected at execute
system.switch_cpus.iew.exec_branches          1680934                       # Number of branches executed
system.switch_cpus.iew.exec_nop                     0                       # number of nop insts executed
system.switch_cpus.iew.exec_rate             1.127070                       # Inst execution rate
system.switch_cpus.iew.exec_refs              3430032                       # number of memory reference insts executed
system.switch_cpus.iew.exec_stores             553864                       # Number of stores executed
system.switch_cpus.iew.exec_swp                     0                       # number of swp insts executed
system.switch_cpus.iew.iewBlockCycles         1016917                       # Number of cycles IEW is blocking
system.switch_cpus.iew.iewDispLoadInsts       2880077                       # Number of dispatched load instructions
system.switch_cpus.iew.iewDispNonSpecInsts          459                       # Number of dispatched non-speculative instructions
system.switch_cpus.iew.iewDispSquashedInsts          994                       # Number of squashed instructions skipped by dispatch
system.switch_cpus.iew.iewDispStoreInsts       562850                       # Number of dispatched store instructions
system.switch_cpus.iew.iewDispatchedInsts     18146789                       # Number of instructions dispatched to IQ
system.switch_cpus.iew.iewExecLoadInsts       2876168                       # Number of load instructions executed
system.switch_cpus.iew.iewExecSquashedInsts        23254                       # Number of squashed instructions skipped in execute
system.switch_cpus.iew.iewExecutedInsts      17991470                       # Number of executed instructions
system.switch_cpus.iew.iewIQFullEvents          14154                       # Number of times the IQ has become full, causing a stall
system.switch_cpus.iew.iewIdleCycles                0                       # Number of cycles IEW is idle
system.switch_cpus.iew.iewLSQFullEvents         56641                       # Number of times the LSQ has become full, causing a stall
system.switch_cpus.iew.iewSquashCycles          13657                       # Number of cycles IEW is squashing
system.switch_cpus.iew.iewUnblockCycles         84754                       # Number of cycles IEW is unblocking
system.switch_cpus.iew.lsq.thread0.blockedLoads            0                       # Number of blocked loads due to partial load-store forwarding
system.switch_cpus.iew.lsq.thread0.cacheBlocked         3219                       # Number of times an access to memory failed due to the cache being blocked
system.switch_cpus.iew.lsq.thread0.forwLoads        62158                       # Number of loads that had data forwarded from stores
system.switch_cpus.iew.lsq.thread0.ignoredResponses          121                       # Number of memory responses ignored because the instruction is squashed
system.switch_cpus.iew.lsq.thread0.invAddrLoads            0                       # Number of loads ignored due to an invalid address
system.switch_cpus.iew.lsq.thread0.invAddrSwpfs            0                       # Number of software prefetches ignored due to an invalid address
system.switch_cpus.iew.lsq.thread0.memOrderViolation          173                       # Number of memory ordering violations
system.switch_cpus.iew.lsq.thread0.rescheduledLoads         8921                       # Number of loads that were rescheduled
system.switch_cpus.iew.lsq.thread0.squashedLoads        68017                       # Number of loads squashed
system.switch_cpus.iew.lsq.thread0.squashedStores        21416                       # Number of stores squashed
system.switch_cpus.iew.memOrderViolationEvents          173                       # Number of memory order violations
system.switch_cpus.iew.predictedNotTakenIncorrect        13967                       # Number of branches that were predicted not taken incorrectly
system.switch_cpus.iew.predictedTakenIncorrect         2487                       # Number of branches that were predicted taken incorrectly
system.switch_cpus.iew.wb_consumers          21018245                       # num instructions consuming a value
system.switch_cpus.iew.wb_count              17953821                       # cumulative count of insts written-back
system.switch_cpus.iew.wb_fanout             0.692723                       # average fanout of values written-back
system.switch_cpus.iew.wb_producers          14559815                       # num instructions producing a value
system.switch_cpus.iew.wb_rate               1.124711                       # insts written-back per cycle
system.switch_cpus.iew.wb_sent               17960692                       # cumulative count of insts sent to commit
system.switch_cpus.int_regfile_reads         26531480                       # number of integer regfile reads
system.switch_cpus.int_regfile_writes        15286212                       # number of integer regfile writes
system.switch_cpus.ipc                       0.626447                       # IPC: Instructions Per Cycle
system.switch_cpus.ipc_total                 0.626447                       # IPC: Total IPC of All Threads
system.switch_cpus.iq.FU_type_0::No_OpClass        16285      0.09%      0.09% # Type of FU issued
system.switch_cpus.iq.FU_type_0::IntAlu      14274672     79.24%     79.33% # Type of FU issued
system.switch_cpus.iq.FU_type_0::IntMult         6289      0.03%     79.36% # Type of FU issued
system.switch_cpus.iq.FU_type_0::IntDiv          1922      0.01%     79.37% # Type of FU issued
system.switch_cpus.iq.FU_type_0::FloatAdd       148768      0.83%     80.20% # Type of FU issued
system.switch_cpus.iq.FU_type_0::FloatCmp            0      0.00%     80.20% # Type of FU issued
system.switch_cpus.iq.FU_type_0::FloatCvt          126      0.00%     80.20% # Type of FU issued
system.switch_cpus.iq.FU_type_0::FloatMult            0      0.00%     80.20% # Type of FU issued
system.switch_cpus.iq.FU_type_0::FloatMultAcc            0      0.00%     80.20% # Type of FU issued
system.switch_cpus.iq.FU_type_0::FloatDiv            0      0.00%     80.20% # Type of FU issued
system.switch_cpus.iq.FU_type_0::FloatMisc            0      0.00%     80.20% # Type of FU issued
system.switch_cpus.iq.FU_type_0::FloatSqrt            0      0.00%     80.20% # Type of FU issued
system.switch_cpus.iq.FU_type_0::SimdAdd            0      0.00%     80.20% # Type of FU issued
system.switch_cpus.iq.FU_type_0::SimdAddAcc            0      0.00%     80.20% # Type of FU issued
system.switch_cpus.iq.FU_type_0::SimdAlu          119      0.00%     80.20% # Type of FU issued
system.switch_cpus.iq.FU_type_0::SimdCmp            0      0.00%     80.20% # Type of FU issued
system.switch_cpus.iq.FU_type_0::SimdCvt           76      0.00%     80.20% # Type of FU issued
system.switch_cpus.iq.FU_type_0::SimdMisc        16571      0.09%     80.29% # Type of FU issued
system.switch_cpus.iq.FU_type_0::SimdMult            0      0.00%     80.29% # Type of FU issued
system.switch_cpus.iq.FU_type_0::SimdMultAcc            0      0.00%     80.29% # Type of FU issued
system.switch_cpus.iq.FU_type_0::SimdShift            0      0.00%     80.29% # Type of FU issued
system.switch_cpus.iq.FU_type_0::SimdShiftAcc            0      0.00%     80.29% # Type of FU issued
system.switch_cpus.iq.FU_type_0::SimdDiv            0      0.00%     80.29% # Type of FU issued
system.switch_cpus.iq.FU_type_0::SimdSqrt            0      0.00%     80.29% # Type of FU issued
system.switch_cpus.iq.FU_type_0::SimdFloatAdd        28682      0.16%     80.45% # Type of FU issued
system.switch_cpus.iq.FU_type_0::SimdFloatAlu            0      0.00%     80.45% # Type of FU issued
system.switch_cpus.iq.FU_type_0::SimdFloatCmp            0      0.00%     80.45% # Type of FU issued
system.switch_cpus.iq.FU_type_0::SimdFloatCvt        34852      0.19%     80.65% # Type of FU issued
system.switch_cpus.iq.FU_type_0::SimdFloatDiv           22      0.00%     80.65% # Type of FU issued
system.switch_cpus.iq.FU_type_0::SimdFloatMisc            0      0.00%     80.65% # Type of FU issued
system.switch_cpus.iq.FU_type_0::SimdFloatMult        49198      0.27%     80.92% # Type of FU issued
system.switch_cpus.iq.FU_type_0::SimdFloatMultAcc            0      0.00%     80.92% # Type of FU issued
system.switch_cpus.iq.FU_type_0::SimdFloatSqrt            0      0.00%     80.92% # Type of FU issued
system.switch_cpus.iq.FU_type_0::SimdReduceAdd            0      0.00%     80.92% # Type of FU issued
system.switch_cpus.iq.FU_type_0::SimdReduceAlu            0      0.00%     80.92% # Type of FU issued
system.switch_cpus.iq.FU_type_0::SimdReduceCmp            0      0.00%     80.92% # Type of FU issued
system.switch_cpus.iq.FU_type_0::SimdFloatReduceAdd            0      0.00%     80.92% # Type of FU issued
system.switch_cpus.iq.FU_type_0::SimdFloatReduceCmp            0      0.00%     80.92% # Type of FU issued
system.switch_cpus.iq.FU_type_0::SimdAes            0      0.00%     80.92% # Type of FU issued
system.switch_cpus.iq.FU_type_0::SimdAesMix            0      0.00%     80.92% # Type of FU issued
system.switch_cpus.iq.FU_type_0::SimdSha1Hash            0      0.00%     80.92% # Type of FU issued
system.switch_cpus.iq.FU_type_0::SimdSha1Hash2            0      0.00%     80.92% # Type of FU issued
system.switch_cpus.iq.FU_type_0::SimdSha256Hash            0      0.00%     80.92% # Type of FU issued
system.switch_cpus.iq.FU_type_0::SimdSha256Hash2            0      0.00%     80.92% # Type of FU issued
system.switch_cpus.iq.FU_type_0::SimdShaSigma2            0      0.00%     80.92% # Type of FU issued
system.switch_cpus.iq.FU_type_0::SimdShaSigma3            0      0.00%     80.92% # Type of FU issued
system.switch_cpus.iq.FU_type_0::SimdPredAlu            0      0.00%     80.92% # Type of FU issued
system.switch_cpus.iq.FU_type_0::MemRead      2789444     15.48%     96.40% # Type of FU issued
system.switch_cpus.iq.FU_type_0::MemWrite       511432      2.84%     99.24% # Type of FU issued
system.switch_cpus.iq.FU_type_0::FloatMemRead        91751      0.51%     99.75% # Type of FU issued
system.switch_cpus.iq.FU_type_0::FloatMemWrite        44516      0.25%    100.00% # Type of FU issued
system.switch_cpus.iq.FU_type_0::IprAccess            0      0.00%    100.00% # Type of FU issued
system.switch_cpus.iq.FU_type_0::InstPrefetch            0      0.00%    100.00% # Type of FU issued
system.switch_cpus.iq.FU_type_0::total       18014725                       # Type of FU issued
system.switch_cpus.iq.fp_alu_accesses          496031                       # Number of floating point alu accesses
system.switch_cpus.iq.fp_inst_queue_reads       984619                       # Number of floating instruction queue reads
system.switch_cpus.iq.fp_inst_queue_wakeup_accesses       478737                       # Number of floating instruction queue wakeup accesses
system.switch_cpus.iq.fp_inst_queue_writes       483518                       # Number of floating instruction queue writes
system.switch_cpus.iq.fu_busy_cnt              154957                       # FU busy when requested
system.switch_cpus.iq.fu_busy_rate           0.008602                       # FU busy rate (busy events/executed inst)
system.switch_cpus.iq.fu_full::No_OpClass            0      0.00%      0.00% # attempts to use FU when none available
system.switch_cpus.iq.fu_full::IntAlu          142552     91.99%     91.99% # attempts to use FU when none available
system.switch_cpus.iq.fu_full::IntMult              0      0.00%     91.99% # attempts to use FU when none available
system.switch_cpus.iq.fu_full::IntDiv               0      0.00%     91.99% # attempts to use FU when none available
system.switch_cpus.iq.fu_full::FloatAdd          5152      3.32%     95.32% # attempts to use FU when none available
system.switch_cpus.iq.fu_full::FloatCmp             0      0.00%     95.32% # attempts to use FU when none available
system.switch_cpus.iq.fu_full::FloatCvt             0      0.00%     95.32% # attempts to use FU when none available
system.switch_cpus.iq.fu_full::FloatMult            0      0.00%     95.32% # attempts to use FU when none available
system.switch_cpus.iq.fu_full::FloatMultAcc            0      0.00%     95.32% # attempts to use FU when none available
system.switch_cpus.iq.fu_full::FloatDiv             0      0.00%     95.32% # attempts to use FU when none available
system.switch_cpus.iq.fu_full::FloatMisc            0      0.00%     95.32% # attempts to use FU when none available
system.switch_cpus.iq.fu_full::FloatSqrt            0      0.00%     95.32% # attempts to use FU when none available
system.switch_cpus.iq.fu_full::SimdAdd              0      0.00%     95.32% # attempts to use FU when none available
system.switch_cpus.iq.fu_full::SimdAddAcc            0      0.00%     95.32% # attempts to use FU when none available
system.switch_cpus.iq.fu_full::SimdAlu              1      0.00%     95.32% # attempts to use FU when none available
system.switch_cpus.iq.fu_full::SimdCmp              0      0.00%     95.32% # attempts to use FU when none available
system.switch_cpus.iq.fu_full::SimdCvt              0      0.00%     95.32% # attempts to use FU when none available
system.switch_cpus.iq.fu_full::SimdMisc             1      0.00%     95.32% # attempts to use FU when none available
system.switch_cpus.iq.fu_full::SimdMult             0      0.00%     95.32% # attempts to use FU when none available
system.switch_cpus.iq.fu_full::SimdMultAcc            0      0.00%     95.32% # attempts to use FU when none available
system.switch_cpus.iq.fu_full::SimdShift            0      0.00%     95.32% # attempts to use FU when none available
system.switch_cpus.iq.fu_full::SimdShiftAcc            0      0.00%     95.32% # attempts to use FU when none available
system.switch_cpus.iq.fu_full::SimdDiv              0      0.00%     95.32% # attempts to use FU when none available
system.switch_cpus.iq.fu_full::SimdSqrt             0      0.00%     95.32% # attempts to use FU when none available
system.switch_cpus.iq.fu_full::SimdFloatAdd            0      0.00%     95.32% # attempts to use FU when none available
system.switch_cpus.iq.fu_full::SimdFloatAlu            0      0.00%     95.32% # attempts to use FU when none available
system.switch_cpus.iq.fu_full::SimdFloatCmp            0      0.00%     95.32% # attempts to use FU when none available
system.switch_cpus.iq.fu_full::SimdFloatCvt            0      0.00%     95.32% # attempts to use FU when none available
system.switch_cpus.iq.fu_full::SimdFloatDiv            0      0.00%     95.32% # attempts to use FU when none available
system.switch_cpus.iq.fu_full::SimdFloatMisc            0      0.00%     95.32% # attempts to use FU when none available
system.switch_cpus.iq.fu_full::SimdFloatMult         1641      1.06%     96.38% # attempts to use FU when none available
system.switch_cpus.iq.fu_full::SimdFloatMultAcc            0      0.00%     96.38% # attempts to use FU when none available
system.switch_cpus.iq.fu_full::SimdFloatSqrt            0      0.00%     96.38% # attempts to use FU when none available
system.switch_cpus.iq.fu_full::SimdReduceAdd            0      0.00%     96.38% # attempts to use FU when none available
system.switch_cpus.iq.fu_full::SimdReduceAlu            0      0.00%     96.38% # attempts to use FU when none available
system.switch_cpus.iq.fu_full::SimdReduceCmp            0      0.00%     96.38% # attempts to use FU when none available
system.switch_cpus.iq.fu_full::SimdFloatReduceAdd            0      0.00%     96.38% # attempts to use FU when none available
system.switch_cpus.iq.fu_full::SimdFloatReduceCmp            0      0.00%     96.38% # attempts to use FU when none available
system.switch_cpus.iq.fu_full::SimdAes              0      0.00%     96.38% # attempts to use FU when none available
system.switch_cpus.iq.fu_full::SimdAesMix            0      0.00%     96.38% # attempts to use FU when none available
system.switch_cpus.iq.fu_full::SimdSha1Hash            0      0.00%     96.38% # attempts to use FU when none available
system.switch_cpus.iq.fu_full::SimdSha1Hash2            0      0.00%     96.38% # attempts to use FU when none available
system.switch_cpus.iq.fu_full::SimdSha256Hash            0      0.00%     96.38% # attempts to use FU when none available
system.switch_cpus.iq.fu_full::SimdSha256Hash2            0      0.00%     96.38% # attempts to use FU when none available
system.switch_cpus.iq.fu_full::SimdShaSigma2            0      0.00%     96.38% # attempts to use FU when none available
system.switch_cpus.iq.fu_full::SimdShaSigma3            0      0.00%     96.38% # attempts to use FU when none available
system.switch_cpus.iq.fu_full::SimdPredAlu            0      0.00%     96.38% # attempts to use FU when none available
system.switch_cpus.iq.fu_full::MemRead           4402      2.84%     99.22% # attempts to use FU when none available
system.switch_cpus.iq.fu_full::MemWrite          1049      0.68%     99.90% # attempts to use FU when none available
system.switch_cpus.iq.fu_full::FloatMemRead           48      0.03%     99.93% # attempts to use FU when none available
system.switch_cpus.iq.fu_full::FloatMemWrite          111      0.07%    100.00% # attempts to use FU when none available
system.switch_cpus.iq.fu_full::IprAccess            0      0.00%    100.00% # attempts to use FU when none available
system.switch_cpus.iq.fu_full::InstPrefetch            0      0.00%    100.00% # attempts to use FU when none available
system.switch_cpus.iq.int_alu_accesses       17657366                       # Number of integer alu accesses
system.switch_cpus.iq.int_inst_queue_reads     50948393                       # Number of integer instruction queue reads
system.switch_cpus.iq.int_inst_queue_wakeup_accesses     17475084                       # Number of integer instruction queue wakeup accesses
system.switch_cpus.iq.int_inst_queue_writes     18133852                       # Number of integer instruction queue writes
system.switch_cpus.iq.iqInstsAdded           18145692                       # Number of instructions added to the IQ (excludes non-spec)
system.switch_cpus.iq.iqInstsIssued          18014725                       # Number of instructions issued
system.switch_cpus.iq.iqNonSpecInstsAdded         1097                       # Number of non-speculative instructions added to the IQ
system.switch_cpus.iq.iqSquashedInstsExamined       470437                       # Number of squashed instructions iterated over during squash; mainly for profiling
system.switch_cpus.iq.iqSquashedInstsIssued         3319                       # Number of squashed instructions issued
system.switch_cpus.iq.iqSquashedNonSpecRemoved          815                       # Number of squashed non-spec instructions that were removed
system.switch_cpus.iq.iqSquashedOperandsExamined       656160                       # Number of squashed operands that are examined and possibly removed from graph
system.switch_cpus.iq.issued_per_cycle::samples     15745287                       # Number of insts issued each cycle
system.switch_cpus.iq.issued_per_cycle::mean     1.144134                       # Number of insts issued each cycle
system.switch_cpus.iq.issued_per_cycle::stdev     1.987856                       # Number of insts issued each cycle
system.switch_cpus.iq.issued_per_cycle::underflows            0      0.00%      0.00% # Number of insts issued each cycle
system.switch_cpus.iq.issued_per_cycle::0     10485212     66.59%     66.59% # Number of insts issued each cycle
system.switch_cpus.iq.issued_per_cycle::1      1085395      6.89%     73.49% # Number of insts issued each cycle
system.switch_cpus.iq.issued_per_cycle::2      1005317      6.38%     79.87% # Number of insts issued each cycle
system.switch_cpus.iq.issued_per_cycle::3       930663      5.91%     85.78% # Number of insts issued each cycle
system.switch_cpus.iq.issued_per_cycle::4       701262      4.45%     90.24% # Number of insts issued each cycle
system.switch_cpus.iq.issued_per_cycle::5       587929      3.73%     93.97% # Number of insts issued each cycle
system.switch_cpus.iq.issued_per_cycle::6       435577      2.77%     96.74% # Number of insts issued each cycle
system.switch_cpus.iq.issued_per_cycle::7       342904      2.18%     98.91% # Number of insts issued each cycle
system.switch_cpus.iq.issued_per_cycle::8       171028      1.09%    100.00% # Number of insts issued each cycle
system.switch_cpus.iq.issued_per_cycle::overflows            0      0.00%    100.00% # Number of insts issued each cycle
system.switch_cpus.iq.issued_per_cycle::min_value            0                       # Number of insts issued each cycle
system.switch_cpus.iq.issued_per_cycle::max_value            8                       # Number of insts issued each cycle
system.switch_cpus.iq.issued_per_cycle::total     15745287                       # Number of insts issued each cycle
system.switch_cpus.iq.rate                   1.128527                       # Inst issue rate
system.switch_cpus.iq.vec_alu_accesses              0                       # Number of vector alu accesses
system.switch_cpus.iq.vec_inst_queue_reads            0                       # Number of vector instruction queue reads
system.switch_cpus.iq.vec_inst_queue_wakeup_accesses            0                       # Number of vector instruction queue wakeup accesses
system.switch_cpus.iq.vec_inst_queue_writes            0                       # Number of vector instruction queue writes
system.switch_cpus.itb.rdAccesses                   0                       # TLB accesses on read requests
system.switch_cpus.itb.rdMisses                     0                       # TLB misses on read requests
system.switch_cpus.itb.wrAccesses             1351450                       # TLB accesses on write requests
system.switch_cpus.itb.wrMisses                   879                       # TLB misses on write requests
system.switch_cpus.memDep0.conflictingLoads        58847                       # Number of conflicting loads.
system.switch_cpus.memDep0.conflictingStores        28936                       # Number of conflicting stores.
system.switch_cpus.memDep0.insertedLoads      2880077                       # Number of loads inserted to the mem dependence unit.
system.switch_cpus.memDep0.insertedStores       562850                       # Number of stores inserted to the mem dependence unit.
system.switch_cpus.misc_regfile_reads         6813792                       # number of misc regfile reads
system.switch_cpus.misc_regfile_writes             64                       # number of misc regfile writes
system.switch_cpus.numCycles                 15963050                       # number of cpu cycles simulated
system.switch_cpus.numWorkItemsCompleted            0                       # number of work items this cpu completed
system.switch_cpus.numWorkItemsStarted              0                       # number of work items this cpu started
system.switch_cpus.rename.BlockCycles         6442697                       # Number of cycles rename is blocking
system.switch_cpus.rename.CommittedMaps      26230122                       # Number of HB maps that are committed
system.switch_cpus.rename.IQFullEvents         432095                       # Number of times rename has blocked due to IQ full
system.switch_cpus.rename.IdleCycles          1138558                       # Number of cycles rename is idle
system.switch_cpus.rename.LQFullEvents        3730626                       # Number of times rename has blocked due to LQ full
system.switch_cpus.rename.ROBFullEvents       1168997                       # Number of times rename has blocked due to ROB full
system.switch_cpus.rename.RenameLookups      44090995                       # Number of register rename lookups that rename has made
system.switch_cpus.rename.RenamedInsts       18237983                       # Number of instructions processed by rename
system.switch_cpus.rename.RenamedOperands     26914047                       # Number of destination operands rename has renamed
system.switch_cpus.rename.RunCycles           2198980                       # Number of cycles rename is running
system.switch_cpus.rename.SQFullEvents        1096744                       # Number of times rename has blocked due to SQ full
system.switch_cpus.rename.SquashCycles          13657                       # Number of cycles rename is squashing
system.switch_cpus.rename.UnblockCycles       5946426                       # Number of cycles rename is unblocking
system.switch_cpus.rename.UndoneMaps           683658                       # Number of HB maps that are undone due to squashing
system.switch_cpus.rename.fp_rename_lookups       530942                       # Number of floating rename lookups
system.switch_cpus.rename.int_rename_lookups     26985726                       # Number of integer rename lookups
system.switch_cpus.rename.serializeStallCycles         4968                       # count of cycles rename stalled for serializing inst
system.switch_cpus.rename.serializingInsts          170                       # count of serializing insts renamed
system.switch_cpus.rename.skidInsts           3744384                       # count of insts added to the skid buffer
system.switch_cpus.rename.tempSerializingInsts          142                       # count of temporary serializing insts renamed
system.switch_cpus.rob.rob_reads             32054233                       # The number of ROB reads
system.switch_cpus.rob.rob_writes            36365159                       # The number of ROB writes
system.switch_cpus.timesIdled                    2910                       # Number of times that the entire CPU went into an idle state and unscheduled itself
system.tol2bus.snoop_filter.hit_multi_requests            6                       # Number of requests hitting in the snoop filter with multiple (>1) holders of the requested data.
system.tol2bus.snoop_filter.hit_multi_snoops            1                       # Number of snoops hitting in the snoop filter with multiple (>1) holders of the requested data.
system.tol2bus.snoop_filter.hit_single_requests       231942                       # Number of requests hitting in the snoop filter with a single holder of the requested data.
system.tol2bus.snoop_filter.hit_single_snoops         3060                       # Number of snoops hitting in the snoop filter with a single holder of the requested data.
system.tol2bus.snoop_filter.tot_requests       464016                       # Total number of requests made to the snoop filter.
system.tol2bus.snoop_filter.tot_snoops           3061                       # Total number of snoops made to the snoop filter.
system.membus.trans_dist::ReadResp             214243                       # Transaction distribution
system.membus.trans_dist::WritebackDirty        95329                       # Transaction distribution
system.membus.trans_dist::CleanEvict           127679                       # Transaction distribution
system.membus.trans_dist::ReadExReq              9087                       # Transaction distribution
system.membus.trans_dist::ReadExResp             9087                       # Transaction distribution
system.membus.trans_dist::ReadSharedReq        214244                       # Transaction distribution
system.membus.pkt_count_system.l2.mem_side::system.mem_ctrls.port       669669                       # Packet count per connected master and slave (bytes)
system.membus.pkt_count_system.l2.mem_side::total       669669                       # Packet count per connected master and slave (bytes)
system.membus.pkt_count::total                 669669                       # Packet count per connected master and slave (bytes)
system.membus.pkt_size_system.l2.mem_side::system.mem_ctrls.port     20394176                       # Cumulative packet size per connected master and slave (bytes)
system.membus.pkt_size_system.l2.mem_side::total     20394176                       # Cumulative packet size per connected master and slave (bytes)
system.membus.pkt_size::total                20394176                       # Cumulative packet size per connected master and slave (bytes)
system.membus.snoops                                0                       # Total snoops (count)
system.membus.snoopTraffic                          0                       # Total snoop traffic (bytes)
system.membus.snoop_fanout::samples            223331                       # Request fanout histogram
system.membus.snoop_fanout::mean                    0                       # Request fanout histogram
system.membus.snoop_fanout::stdev                   0                       # Request fanout histogram
system.membus.snoop_fanout::underflows              0      0.00%      0.00% # Request fanout histogram
system.membus.snoop_fanout::0                  223331    100.00%    100.00% # Request fanout histogram
system.membus.snoop_fanout::1                       0      0.00%    100.00% # Request fanout histogram
system.membus.snoop_fanout::overflows               0      0.00%    100.00% # Request fanout histogram
system.membus.snoop_fanout::min_value               0                       # Request fanout histogram
system.membus.snoop_fanout::max_value               0                       # Request fanout histogram
system.membus.snoop_fanout::total              223331                       # Request fanout histogram
system.membus.reqLayer2.occupancy           869400000                       # Layer occupancy (ticks)
system.membus.reqLayer2.utilization              10.9                       # Layer utilization (%)
system.membus.respLayer1.occupancy         1168116750                       # Layer occupancy (ticks)
system.membus.respLayer1.utilization             14.6                       # Layer utilization (%)
system.membus.power_state.pwrStateResidencyTicks::UNDEFINED   7981535500                       # Cumulative time (in ticks) in various power states
system.switch_cpus.dtb.walker.power_state.pwrStateResidencyTicks::UNDEFINED   7981535500                       # Cumulative time (in ticks) in various power states
system.switch_cpus.itb.walker.power_state.pwrStateResidencyTicks::UNDEFINED   7981535500                       # Cumulative time (in ticks) in various power states
system.switch_cpus.power_state.pwrStateResidencyTicks::OFF   7981535500                       # Cumulative time (in ticks) in various power states
system.tol2bus.trans_dist::ReadResp            221835                       # Transaction distribution
system.tol2bus.trans_dist::WritebackDirty       193990                       # Transaction distribution
system.tol2bus.trans_dist::WritebackClean         5062                       # Transaction distribution
system.tol2bus.trans_dist::CleanEvict          258541                       # Transaction distribution
system.tol2bus.trans_dist::UpgradeReq               1                       # Transaction distribution
system.tol2bus.trans_dist::UpgradeResp              1                       # Transaction distribution
system.tol2bus.trans_dist::ReadExReq            10236                       # Transaction distribution
system.tol2bus.trans_dist::ReadExResp           10236                       # Transaction distribution
system.tol2bus.trans_dist::ReadCleanReq          5127                       # Transaction distribution
system.tol2bus.trans_dist::ReadSharedReq       216710                       # Transaction distribution
system.tol2bus.pkt_count_system.cpu.icache.mem_side::system.l2.cpu_side        15315                       # Packet count per connected master and slave (bytes)
system.tol2bus.pkt_count_system.cpu.dcache.mem_side::system.l2.cpu_side       680772                       # Packet count per connected master and slave (bytes)
system.tol2bus.pkt_count::total                696087                       # Packet count per connected master and slave (bytes)
system.tol2bus.pkt_size_system.cpu.icache.mem_side::system.l2.cpu_side       652032                       # Cumulative packet size per connected master and slave (bytes)
system.tol2bus.pkt_size_system.cpu.dcache.mem_side::system.l2.cpu_side     20838720                       # Cumulative packet size per connected master and slave (bytes)
system.tol2bus.pkt_size::total               21490752                       # Cumulative packet size per connected master and slave (bytes)
system.tol2bus.snoops                          225652                       # Total snoops (count)
system.tol2bus.snoopTraffic                   6101120                       # Total snoop traffic (bytes)
system.tol2bus.snoop_fanout::samples           457725                       # Request fanout histogram
system.tol2bus.snoop_fanout::mean            0.006703                       # Request fanout histogram
system.tol2bus.snoop_fanout::stdev           0.081622                       # Request fanout histogram
system.tol2bus.snoop_fanout::underflows             0      0.00%      0.00% # Request fanout histogram
system.tol2bus.snoop_fanout::0                 454658     99.33%     99.33% # Request fanout histogram
system.tol2bus.snoop_fanout::1                   3066      0.67%    100.00% # Request fanout histogram
system.tol2bus.snoop_fanout::2                      1      0.00%    100.00% # Request fanout histogram
system.tol2bus.snoop_fanout::3                      0      0.00%    100.00% # Request fanout histogram
system.tol2bus.snoop_fanout::4                      0      0.00%    100.00% # Request fanout histogram
system.tol2bus.snoop_fanout::overflows              0      0.00%    100.00% # Request fanout histogram
system.tol2bus.snoop_fanout::min_value              0                       # Request fanout histogram
system.tol2bus.snoop_fanout::max_value              2                       # Request fanout histogram
system.tol2bus.snoop_fanout::total             457725                       # Request fanout histogram
system.tol2bus.reqLayer0.occupancy          335729000                       # Layer occupancy (ticks)
system.tol2bus.reqLayer0.utilization              4.2                       # Layer utilization (%)
system.tol2bus.respLayer1.occupancy         340417492                       # Layer occupancy (ticks)
system.tol2bus.respLayer1.utilization             4.3                       # Layer utilization (%)
system.tol2bus.respLayer0.occupancy           7703468                       # Layer occupancy (ticks)
system.tol2bus.respLayer0.utilization             0.1                       # Layer utilization (%)
system.tol2bus.power_state.pwrStateResidencyTicks::UNDEFINED   7981535500                       # Cumulative time (in ticks) in various power states
system.voltage_domain.voltage                       1                       # Voltage in Volts
system.clk_domain.clock                          1000                       # Clock period in ticks
system.l2.demand_hits::.switch_cpus.inst         2239                       # number of demand (read+write) hits
system.l2.demand_hits::.switch_cpus.data         6499                       # number of demand (read+write) hits
system.l2.demand_hits::total                     8738                       # number of demand (read+write) hits
system.l2.overall_hits::.switch_cpus.inst         2239                       # number of overall hits
system.l2.overall_hits::.switch_cpus.data         6499                       # number of overall hits
system.l2.overall_hits::total                    8738                       # number of overall hits
system.l2.demand_misses::.cpu.inst                  2                       # number of demand (read+write) misses
system.l2.demand_misses::.cpu.data                  2                       # number of demand (read+write) misses
system.l2.demand_misses::.switch_cpus.inst         2885                       # number of demand (read+write) misses
system.l2.demand_misses::.switch_cpus.data       220445                       # number of demand (read+write) misses
system.l2.demand_misses::total                 223334                       # number of demand (read+write) misses
system.l2.overall_misses::.cpu.inst                 2                       # number of overall misses
system.l2.overall_misses::.cpu.data                 2                       # number of overall misses
system.l2.overall_misses::.switch_cpus.inst         2885                       # number of overall misses
system.l2.overall_misses::.switch_cpus.data       220445                       # number of overall misses
system.l2.overall_misses::total                223334                       # number of overall misses
system.l2.demand_miss_latency::.switch_cpus.inst    240799000                       # number of demand (read+write) miss cycles
system.l2.demand_miss_latency::.switch_cpus.data  17742006500                       # number of demand (read+write) miss cycles
system.l2.demand_miss_latency::total      17982805500                       # number of demand (read+write) miss cycles
system.l2.overall_miss_latency::.switch_cpus.inst    240799000                       # number of overall miss cycles
system.l2.overall_miss_latency::.switch_cpus.data  17742006500                       # number of overall miss cycles
system.l2.overall_miss_latency::total     17982805500                       # number of overall miss cycles
system.l2.demand_accesses::.cpu.inst                2                       # number of demand (read+write) accesses
system.l2.demand_accesses::.cpu.data                2                       # number of demand (read+write) accesses
system.l2.demand_accesses::.switch_cpus.inst         5124                       # number of demand (read+write) accesses
system.l2.demand_accesses::.switch_cpus.data       226944                       # number of demand (read+write) accesses
system.l2.demand_accesses::total               232072                       # number of demand (read+write) accesses
system.l2.overall_accesses::.cpu.inst               2                       # number of overall (read+write) accesses
system.l2.overall_accesses::.cpu.data               2                       # number of overall (read+write) accesses
system.l2.overall_accesses::.switch_cpus.inst         5124                       # number of overall (read+write) accesses
system.l2.overall_accesses::.switch_cpus.data       226944                       # number of overall (read+write) accesses
system.l2.overall_accesses::total              232072                       # number of overall (read+write) accesses
system.l2.demand_miss_rate::.cpu.inst               1                       # miss rate for demand accesses
system.l2.demand_miss_rate::.cpu.data               1                       # miss rate for demand accesses
system.l2.demand_miss_rate::.switch_cpus.inst     0.563037                       # miss rate for demand accesses
system.l2.demand_miss_rate::.switch_cpus.data     0.971363                       # miss rate for demand accesses
system.l2.demand_miss_rate::total            0.962348                       # miss rate for demand accesses
system.l2.overall_miss_rate::.cpu.inst              1                       # miss rate for overall accesses
system.l2.overall_miss_rate::.cpu.data              1                       # miss rate for overall accesses
system.l2.overall_miss_rate::.switch_cpus.inst     0.563037                       # miss rate for overall accesses
system.l2.overall_miss_rate::.switch_cpus.data     0.971363                       # miss rate for overall accesses
system.l2.overall_miss_rate::total           0.962348                       # miss rate for overall accesses
system.l2.demand_avg_miss_latency::.switch_cpus.inst 83465.857886                       # average overall miss latency
system.l2.demand_avg_miss_latency::.switch_cpus.data 80482.689560                       # average overall miss latency
system.l2.demand_avg_miss_latency::total 80519.784269                       # average overall miss latency
system.l2.overall_avg_miss_latency::.switch_cpus.inst 83465.857886                       # average overall miss latency
system.l2.overall_avg_miss_latency::.switch_cpus.data 80482.689560                       # average overall miss latency
system.l2.overall_avg_miss_latency::total 80519.784269                       # average overall miss latency
system.l2.blocked_cycles::no_mshrs                  0                       # number of cycles access was blocked
system.l2.blocked_cycles::no_targets                0                       # number of cycles access was blocked
system.l2.blocked::no_mshrs                         0                       # number of cycles access was blocked
system.l2.blocked::no_targets                       0                       # number of cycles access was blocked
system.l2.avg_blocked_cycles::no_mshrs            nan                       # average number of cycles each access was blocked
system.l2.avg_blocked_cycles::no_targets          nan                       # average number of cycles each access was blocked
system.l2.writebacks::.writebacks               95329                       # number of writebacks
system.l2.writebacks::total                     95329                       # number of writebacks
system.l2.demand_mshr_hits::.switch_cpus.inst            1                       # number of demand (read+write) MSHR hits
system.l2.demand_mshr_hits::.switch_cpus.data            1                       # number of demand (read+write) MSHR hits
system.l2.demand_mshr_hits::total                   2                       # number of demand (read+write) MSHR hits
system.l2.overall_mshr_hits::.switch_cpus.inst            1                       # number of overall MSHR hits
system.l2.overall_mshr_hits::.switch_cpus.data            1                       # number of overall MSHR hits
system.l2.overall_mshr_hits::total                  2                       # number of overall MSHR hits
system.l2.demand_mshr_misses::.switch_cpus.inst         2884                       # number of demand (read+write) MSHR misses
system.l2.demand_mshr_misses::.switch_cpus.data       220444                       # number of demand (read+write) MSHR misses
system.l2.demand_mshr_misses::total            223328                       # number of demand (read+write) MSHR misses
system.l2.overall_mshr_misses::.switch_cpus.inst         2884                       # number of overall MSHR misses
system.l2.overall_mshr_misses::.switch_cpus.data       220444                       # number of overall MSHR misses
system.l2.overall_mshr_misses::total           223328                       # number of overall MSHR misses
system.l2.demand_mshr_miss_latency::.switch_cpus.inst    211890500                       # number of demand (read+write) MSHR miss cycles
system.l2.demand_mshr_miss_latency::.switch_cpus.data  15537526000                       # number of demand (read+write) MSHR miss cycles
system.l2.demand_mshr_miss_latency::total  15749416500                       # number of demand (read+write) MSHR miss cycles
system.l2.overall_mshr_miss_latency::.switch_cpus.inst    211890500                       # number of overall MSHR miss cycles
system.l2.overall_mshr_miss_latency::.switch_cpus.data  15537526000                       # number of overall MSHR miss cycles
system.l2.overall_mshr_miss_latency::total  15749416500                       # number of overall MSHR miss cycles
system.l2.demand_mshr_miss_rate::.switch_cpus.inst     0.562842                       # mshr miss rate for demand accesses
system.l2.demand_mshr_miss_rate::.switch_cpus.data     0.971359                       # mshr miss rate for demand accesses
system.l2.demand_mshr_miss_rate::total       0.962322                       # mshr miss rate for demand accesses
system.l2.overall_mshr_miss_rate::.switch_cpus.inst     0.562842                       # mshr miss rate for overall accesses
system.l2.overall_mshr_miss_rate::.switch_cpus.data     0.971359                       # mshr miss rate for overall accesses
system.l2.overall_mshr_miss_rate::total      0.962322                       # mshr miss rate for overall accesses
system.l2.demand_avg_mshr_miss_latency::.switch_cpus.inst 73471.047157                       # average overall mshr miss latency
system.l2.demand_avg_mshr_miss_latency::.switch_cpus.data 70482.870933                       # average overall mshr miss latency
system.l2.demand_avg_mshr_miss_latency::total 70521.459468                       # average overall mshr miss latency
system.l2.overall_avg_mshr_miss_latency::.switch_cpus.inst 73471.047157                       # average overall mshr miss latency
system.l2.overall_avg_mshr_miss_latency::.switch_cpus.data 70482.870933                       # average overall mshr miss latency
system.l2.overall_avg_mshr_miss_latency::total 70521.459468                       # average overall mshr miss latency
system.l2.replacements                         225651                       # number of replacements
system.l2.WritebackDirty_hits::.writebacks        98661                       # number of WritebackDirty hits
system.l2.WritebackDirty_hits::total            98661                       # number of WritebackDirty hits
system.l2.WritebackDirty_accesses::.writebacks        98661                       # number of WritebackDirty accesses(hits+misses)
system.l2.WritebackDirty_accesses::total        98661                       # number of WritebackDirty accesses(hits+misses)
system.l2.WritebackClean_hits::.writebacks         5061                       # number of WritebackClean hits
system.l2.WritebackClean_hits::total             5061                       # number of WritebackClean hits
system.l2.WritebackClean_accesses::.writebacks         5061                       # number of WritebackClean accesses(hits+misses)
system.l2.WritebackClean_accesses::total         5061                       # number of WritebackClean accesses(hits+misses)
system.l2.CleanEvict_mshr_misses::.writebacks          416                       # number of CleanEvict MSHR misses
system.l2.CleanEvict_mshr_misses::total           416                       # number of CleanEvict MSHR misses
system.l2.CleanEvict_mshr_miss_rate::.writebacks          inf                       # mshr miss rate for CleanEvict accesses
system.l2.CleanEvict_mshr_miss_rate::total          inf                       # mshr miss rate for CleanEvict accesses
system.l2.UpgradeReq_hits::.switch_cpus.data            1                       # number of UpgradeReq hits
system.l2.UpgradeReq_hits::total                    1                       # number of UpgradeReq hits
system.l2.UpgradeReq_accesses::.switch_cpus.data            1                       # number of UpgradeReq accesses(hits+misses)
system.l2.UpgradeReq_accesses::total                1                       # number of UpgradeReq accesses(hits+misses)
system.l2.ReadExReq_hits::.switch_cpus.data         1149                       # number of ReadExReq hits
system.l2.ReadExReq_hits::total                  1149                       # number of ReadExReq hits
system.l2.ReadExReq_misses::.cpu.data               2                       # number of ReadExReq misses
system.l2.ReadExReq_misses::.switch_cpus.data         9085                       # number of ReadExReq misses
system.l2.ReadExReq_misses::total                9087                       # number of ReadExReq misses
system.l2.ReadExReq_miss_latency::.switch_cpus.data    694276000                       # number of ReadExReq miss cycles
system.l2.ReadExReq_miss_latency::total     694276000                       # number of ReadExReq miss cycles
system.l2.ReadExReq_accesses::.cpu.data             2                       # number of ReadExReq accesses(hits+misses)
system.l2.ReadExReq_accesses::.switch_cpus.data        10234                       # number of ReadExReq accesses(hits+misses)
system.l2.ReadExReq_accesses::total             10236                       # number of ReadExReq accesses(hits+misses)
system.l2.ReadExReq_miss_rate::.cpu.data            1                       # miss rate for ReadExReq accesses
system.l2.ReadExReq_miss_rate::.switch_cpus.data     0.887727                       # miss rate for ReadExReq accesses
system.l2.ReadExReq_miss_rate::total         0.887749                       # miss rate for ReadExReq accesses
system.l2.ReadExReq_avg_miss_latency::.switch_cpus.data 76420.033021                       # average ReadExReq miss latency
system.l2.ReadExReq_avg_miss_latency::total 76403.213382                       # average ReadExReq miss latency
system.l2.ReadExReq_mshr_misses::.switch_cpus.data         9085                       # number of ReadExReq MSHR misses
system.l2.ReadExReq_mshr_misses::total           9085                       # number of ReadExReq MSHR misses
system.l2.ReadExReq_mshr_miss_latency::.switch_cpus.data    603426000                       # number of ReadExReq MSHR miss cycles
system.l2.ReadExReq_mshr_miss_latency::total    603426000                       # number of ReadExReq MSHR miss cycles
system.l2.ReadExReq_mshr_miss_rate::.switch_cpus.data     0.887727                       # mshr miss rate for ReadExReq accesses
system.l2.ReadExReq_mshr_miss_rate::total     0.887554                       # mshr miss rate for ReadExReq accesses
[...]
system.cpu.itb_walker_cache.blocked_cycles::no_targets            0                       # number of cycles access was blocked
system.cpu.itb_walker_cache.blocked::no_mshrs            0                       # number of cycles access was blocked
system.cpu.itb_walker_cache.blocked::no_targets            0                       # number of cycles access was blocked
system.cpu.itb_walker_cache.avg_blocked_cycles::no_mshrs          nan                       # average number of cycles each access was blocked
system.cpu.itb_walker_cache.avg_blocked_cycles::no_targets          nan                       # average number of cycles each access was blocked
system.cpu.itb_walker_cache.replacements            0                       # number of replacements
system.cpu.itb_walker_cache.power_state.pwrStateResidencyTicks::UNDEFINED   8678555500                       # Cumulative time (in ticks) in various power states
system.cpu.itb_walker_cache.tags.tagsinuse            0                       # Cycle average of tags in use
system.cpu.itb_walker_cache.tags.total_refs            0                       # Total number of references to valid blocks.
system.cpu.itb_walker_cache.tags.sampled_refs            0                       # Sample count of references to valid blocks.
system.cpu.itb_walker_cache.tags.avg_refs          nan                       # Average number of references to valid blocks.
system.cpu.itb_walker_cache.tags.warmup_cycle            0                       # Cycle when the warmup percentage was hit.
system.cpu.itb_walker_cache.tags.tag_accesses            0                       # Number of tag accesses
system.cpu.itb_walker_cache.tags.data_accesses            0                       # Number of data accesses
system.cpu.itb_walker_cache.tags.power_state.pwrStateResidencyTicks::UNDEFINED   8678555500                       # Cumulative time (in ticks) in various power states
system.cpu.itb.walker.power_state.pwrStateResidencyTicks::UNDEFINED   8678555500                       # Cumulative time (in ticks) in various power states
system.cpu.dtb_walker_cache.blocked_cycles::no_mshrs            0                       # number of cycles access was blocked
system.cpu.dtb_walker_cache.blocked_cycles::no_targets            0                       # number of cycles access was blocked
system.cpu.dtb_walker_cache.blocked::no_mshrs            0                       # number of cycles access was blocked
system.cpu.dtb_walker_cache.blocked::no_targets            0                       # number of cycles access was blocked
system.cpu.dtb_walker_cache.avg_blocked_cycles::no_mshrs          nan                       # average number of cycles each access was blocked
system.cpu.dtb_walker_cache.avg_blocked_cycles::no_targets          nan                       # average number of cycles each access was blocked
system.cpu.dtb_walker_cache.replacements            0                       # number of replacements
system.cpu.dtb_walker_cache.power_state.pwrStateResidencyTicks::UNDEFINED   8678555500                       # Cumulative time (in ticks) in various power states
system.cpu.dtb_walker_cache.tags.tagsinuse            0                       # Cycle average of tags in use
system.cpu.dtb_walker_cache.tags.total_refs            0                       # Total number of references to valid blocks.
system.cpu.dtb_walker_cache.tags.sampled_refs            0                       # Sample count of references to valid blocks.
system.cpu.dtb_walker_cache.tags.avg_refs          nan                       # Average number of references to valid blocks.
system.cpu.dtb_walker_cache.tags.warmup_cycle            0                       # Cycle when the warmup percentage was hit.
system.cpu.dtb_walker_cache.tags.tag_accesses            0                       # Number of tag accesses
system.cpu.dtb_walker_cache.tags.data_accesses            0                       # Number of data accesses
system.cpu.dtb_walker_cache.tags.power_state.pwrStateResidencyTicks::UNDEFINED   8678555500                       # Cumulative time (in ticks) in various power states
system.cpu.dcache.demand_hits::.cpu.data            5                       # number of demand (read+write) hits
system.cpu.dcache.demand_hits::.switch_cpus.data      2696110                       # number of demand (read+write) hits
system.cpu.dcache.demand_hits::total          2696115                       # number of demand (read+write) hits
system.cpu.dcache.overall_hits::.cpu.data            5                       # number of overall hits
system.cpu.dcache.overall_hits::.switch_cpus.data      2696110                       # number of overall hits
system.cpu.dcache.overall_hits::total         2696115                       # number of overall hits
system.cpu.dcache.demand_misses::.cpu.data            2                       # number of demand (read+write) misses
system.cpu.dcache.demand_misses::.switch_cpus.data       933040                       # number of demand (read+write) misses
system.cpu.dcache.demand_misses::total         933042                       # number of demand (read+write) misses
system.cpu.dcache.overall_misses::.cpu.data            2                       # number of overall misses
system.cpu.dcache.overall_misses::.switch_cpus.data       933040                       # number of overall misses
system.cpu.dcache.overall_misses::total        933042                       # number of overall misses
system.cpu.dcache.demand_miss_latency::.switch_cpus.data  68826075925                       # number of demand (read+write) miss cycles
system.cpu.dcache.demand_miss_latency::total  68826075925                       # number of demand (read+write) miss cycles
system.cpu.dcache.overall_miss_latency::.switch_cpus.data  68826075925                       # number of overall miss cycles
system.cpu.dcache.overall_miss_latency::total  68826075925                       # number of overall miss cycles
system.cpu.dcache.demand_accesses::.cpu.data            7                       # number of demand (read+write) accesses
system.cpu.dcache.demand_accesses::.switch_cpus.data      3629150                       # number of demand (read+write) accesses
system.cpu.dcache.demand_accesses::total      3629157                       # number of demand (read+write) accesses
system.cpu.dcache.overall_accesses::.cpu.data            7                       # number of overall (read+write) accesses
system.cpu.dcache.overall_accesses::.switch_cpus.data      3629150                       # number of overall (read+write) accesses
system.cpu.dcache.overall_accesses::total      3629157                       # number of overall (read+write) accesses
system.cpu.dcache.demand_miss_rate::.cpu.data     0.285714                       # miss rate for demand accesses
system.cpu.dcache.demand_miss_rate::.switch_cpus.data     0.257096                       # miss rate for demand accesses
system.cpu.dcache.demand_miss_rate::total     0.257096                       # miss rate for demand accesses
system.cpu.dcache.overall_miss_rate::.cpu.data     0.285714                       # miss rate for overall accesses
system.cpu.dcache.overall_miss_rate::.switch_cpus.data     0.257096                       # miss rate for overall accesses
system.cpu.dcache.overall_miss_rate::total     0.257096                       # miss rate for overall accesses
system.cpu.dcache.demand_avg_miss_latency::.switch_cpus.data 73765.407619                       # average overall miss latency
system.cpu.dcache.demand_avg_miss_latency::total 73765.249501                       # average overall miss latency
system.cpu.dcache.overall_avg_miss_latency::.switch_cpus.data 73765.407619                       # average overall miss latency
system.cpu.dcache.overall_avg_miss_latency::total 73765.249501                       # average overall miss latency
system.cpu.dcache.blocked_cycles::no_mshrs       206223                       # number of cycles access was blocked
system.cpu.dcache.blocked_cycles::no_targets         1374                       # number of cycles access was blocked
system.cpu.dcache.blocked::no_mshrs              3753                       # number of cycles access was blocked
system.cpu.dcache.blocked::no_targets              13                       # number of cycles access was blocked
system.cpu.dcache.avg_blocked_cycles::no_mshrs    54.948841                       # average number of cycles each access was blocked
system.cpu.dcache.avg_blocked_cycles::no_targets   105.692308                       # average number of cycles each access was blocked
system.cpu.dcache.writebacks::.writebacks       102709                       # number of writebacks
system.cpu.dcache.writebacks::total            102709                       # number of writebacks
system.cpu.dcache.demand_mshr_hits::.switch_cpus.data       683069                       # number of demand (read+write) MSHR hits
system.cpu.dcache.demand_mshr_hits::total       683069                       # number of demand (read+write) MSHR hits
system.cpu.dcache.overall_mshr_hits::.switch_cpus.data       683069                       # number of overall MSHR hits
system.cpu.dcache.overall_mshr_hits::total       683069                       # number of overall MSHR hits
system.cpu.dcache.demand_mshr_misses::.switch_cpus.data       249971                       # number of demand (read+write) MSHR misses
system.cpu.dcache.demand_mshr_misses::total       249971                       # number of demand (read+write) MSHR misses
system.cpu.dcache.overall_mshr_misses::.switch_cpus.data       249971                       # number of overall MSHR misses
system.cpu.dcache.overall_mshr_misses::total       249971                       # number of overall MSHR misses
system.cpu.dcache.demand_mshr_miss_latency::.switch_cpus.data  19942275933                       # number of demand (read+write) MSHR miss cycles
system.cpu.dcache.demand_mshr_miss_latency::total  19942275933                       # number of demand (read+write) MSHR miss cycles
system.cpu.dcache.overall_mshr_miss_latency::.switch_cpus.data  19942275933                       # number of overall MSHR miss cycles
system.cpu.dcache.overall_mshr_miss_latency::total  19942275933                       # number of overall MSHR miss cycles
system.cpu.dcache.demand_mshr_miss_rate::.switch_cpus.data     0.068879                       # mshr miss rate for demand accesses
system.cpu.dcache.demand_mshr_miss_rate::total     0.068879                       # mshr miss rate for demand accesses
system.cpu.dcache.overall_mshr_miss_rate::.switch_cpus.data     0.068879                       # mshr miss rate for overall accesses
system.cpu.dcache.overall_mshr_miss_rate::total     0.068879                       # mshr miss rate for overall accesses
system.cpu.dcache.demand_avg_mshr_miss_latency::.switch_cpus.data 79778.358022                       # average overall mshr miss latency
system.cpu.dcache.demand_avg_mshr_miss_latency::total 79778.358022                       # average overall mshr miss latency
system.cpu.dcache.overall_avg_mshr_miss_latency::.switch_cpus.data 79778.358022                       # average overall mshr miss latency
system.cpu.dcache.overall_avg_mshr_miss_latency::total 79778.358022                       # average overall mshr miss latency
system.cpu.dcache.replacements                 249908                       # number of replacements
system.cpu.dcache.ReadReq_hits::.switch_cpus.data      2144407                       # number of ReadReq hits
system.cpu.dcache.ReadReq_hits::total         2144407                       # number of ReadReq hits
system.cpu.dcache.ReadReq_misses::.switch_cpus.data       922250                       # number of ReadReq misses
system.cpu.dcache.ReadReq_misses::total        922250                       # number of ReadReq misses
system.cpu.dcache.ReadReq_miss_latency::.switch_cpus.data  68069006000                       # number of ReadReq miss cycles
system.cpu.dcache.ReadReq_miss_latency::total  68069006000                       # number of ReadReq miss cycles
system.cpu.dcache.ReadReq_accesses::.switch_cpus.data      3066657                       # number of ReadReq accesses(hits+misses)
system.cpu.dcache.ReadReq_accesses::total      3066657                       # number of ReadReq accesses(hits+misses)
system.cpu.dcache.ReadReq_miss_rate::.switch_cpus.data     0.300735                       # miss rate for ReadReq accesses
system.cpu.dcache.ReadReq_miss_rate::total     0.300735                       # miss rate for ReadReq accesses
system.cpu.dcache.ReadReq_avg_miss_latency::.switch_cpus.data 73807.542423                       # average ReadReq miss latency
system.cpu.dcache.ReadReq_avg_miss_latency::total 73807.542423                       # average ReadReq miss latency
system.cpu.dcache.ReadReq_mshr_hits::.switch_cpus.data       682657                       # number of ReadReq MSHR hits
system.cpu.dcache.ReadReq_mshr_hits::total       682657                       # number of ReadReq MSHR hits
system.cpu.dcache.ReadReq_mshr_misses::.switch_cpus.data       239593                       # number of ReadReq MSHR misses
system.cpu.dcache.ReadReq_mshr_misses::total       239593                       # number of ReadReq MSHR misses
system.cpu.dcache.ReadReq_mshr_miss_latency::.switch_cpus.data  19204475500                       # number of ReadReq MSHR miss cycles
system.cpu.dcache.ReadReq_mshr_miss_latency::total  19204475500                       # number of ReadReq MSHR miss cycles
system.cpu.dcache.ReadReq_mshr_miss_rate::.switch_cpus.data     0.078128                       # mshr miss rate for ReadReq accesses
system.cpu.dcache.ReadReq_mshr_miss_rate::total     0.078128                       # mshr miss rate for ReadReq accesses
system.cpu.dcache.ReadReq_avg_mshr_miss_latency::.switch_cpus.data 80154.576720                       # average ReadReq mshr miss latency
system.cpu.dcache.ReadReq_avg_mshr_miss_latency::total 80154.576720                       # average ReadReq mshr miss latency
system.cpu.dcache.WriteReq_hits::.cpu.data            5                       # number of WriteReq hits
system.cpu.dcache.WriteReq_hits::.switch_cpus.data       551703                       # number of WriteReq hits
system.cpu.dcache.WriteReq_hits::total         551708                       # number of WriteReq hits
system.cpu.dcache.WriteReq_misses::.cpu.data            2                       # number of WriteReq misses
system.cpu.dcache.WriteReq_misses::.switch_cpus.data        10790                       # number of WriteReq misses
system.cpu.dcache.WriteReq_misses::total        10792                       # number of WriteReq misses
system.cpu.dcache.WriteReq_miss_latency::.switch_cpus.data    757069925                       # number of WriteReq miss cycles
system.cpu.dcache.WriteReq_miss_latency::total    757069925                       # number of WriteReq miss cycles
system.cpu.dcache.WriteReq_accesses::.cpu.data            7                       # number of WriteReq accesses(hits+misses)
system.cpu.dcache.WriteReq_accesses::.switch_cpus.data       562493                       # number of WriteReq accesses(hits+misses)
system.cpu.dcache.WriteReq_accesses::total       562500                       # number of WriteReq accesses(hits+misses)
system.cpu.dcache.WriteReq_miss_rate::.cpu.data     0.285714                       # miss rate for WriteReq accesses
system.cpu.dcache.WriteReq_miss_rate::.switch_cpus.data     0.019182                       # miss rate for WriteReq accesses
system.cpu.dcache.WriteReq_miss_rate::total     0.019186                       # miss rate for WriteReq accesses
system.cpu.dcache.WriteReq_avg_miss_latency::.switch_cpus.data 70164.033828                       # average WriteReq miss latency
system.cpu.dcache.WriteReq_avg_miss_latency::total 70151.030856                       # average WriteReq miss latency
system.cpu.dcache.WriteReq_mshr_hits::.switch_cpus.data          412                       # number of WriteReq MSHR hits
system.cpu.dcache.WriteReq_mshr_hits::total          412                       # number of WriteReq MSHR hits
system.cpu.dcache.WriteReq_mshr_misses::.switch_cpus.data        10378                       # number of WriteReq MSHR misses
system.cpu.dcache.WriteReq_mshr_misses::total        10378                       # number of WriteReq MSHR misses
system.cpu.dcache.WriteReq_mshr_miss_latency::.switch_cpus.data    737800433                       # number of WriteReq MSHR miss cycles
system.cpu.dcache.WriteReq_mshr_miss_latency::total    737800433                       # number of WriteReq MSHR miss cycles
system.cpu.dcache.WriteReq_mshr_miss_rate::.switch_cpus.data     0.018450                       # mshr miss rate for WriteReq accesses
system.cpu.dcache.WriteReq_mshr_miss_rate::total     0.018450                       # mshr miss rate for WriteReq accesses
system.cpu.dcache.WriteReq_avg_mshr_miss_latency::.switch_cpus.data 71092.737811                       # average WriteReq mshr miss latency
system.cpu.dcache.WriteReq_avg_mshr_miss_latency::total 71092.737811                       # average WriteReq mshr miss latency
system.cpu.dcache.power_state.pwrStateResidencyTicks::UNDEFINED   8678555500                       # Cumulative time (in ticks) in various power states
system.cpu.dcache.tags.tagsinuse            63.981998                       # Cycle average of tags in use
system.cpu.dcache.tags.total_refs             2946088                       # Total number of references to valid blocks.
system.cpu.dcache.tags.sampled_refs            249972                       # Sample count of references to valid blocks.
system.cpu.dcache.tags.avg_refs             11.785672                       # Average number of references to valid blocks.
system.cpu.dcache.tags.warmup_cycle              1500                       # Cycle when the warmup percentage was hit.
system.cpu.dcache.tags.occ_blocks::.cpu.data     0.001555                       # Average occupied blocks per requestor
system.cpu.dcache.tags.occ_blocks::.switch_cpus.data    63.980443                       # Average occupied blocks per requestor
system.cpu.dcache.tags.occ_percent::.cpu.data     0.000024                       # Average percentage of cache occupancy
system.cpu.dcache.tags.occ_percent::.switch_cpus.data     0.999694                       # Average percentage of cache occupancy
system.cpu.dcache.tags.occ_percent::total     0.999719                       # Average percentage of cache occupancy
system.cpu.dcache.tags.occ_task_id_blocks::1024           64                       # Occupied blocks per task id
system.cpu.dcache.tags.age_task_id_blocks_1024::0           58                       # Occupied blocks per task id
system.cpu.dcache.tags.age_task_id_blocks_1024::1            4                       # Occupied blocks per task id
system.cpu.dcache.tags.age_task_id_blocks_1024::3            2                       # Occupied blocks per task id
system.cpu.dcache.tags.occ_task_id_percent::1024            1                       # Percentage of cache occupancy per task id
system.cpu.dcache.tags.tag_accesses           7508286                       # Number of tag accesses
system.cpu.dcache.tags.data_accesses          7508286                       # Number of data accesses
system.cpu.dcache.tags.power_state.pwrStateResidencyTicks::UNDEFINED   8678555500                       # Cumulative time (in ticks) in various power states
system.cpu.power_state.numTransitions               1                       # Number of power state transitions
system.cpu.power_state.pwrStateResidencyTicks::ON        10500                       # Cumulative time (in ticks) in various power states
system.cpu.power_state.pwrStateResidencyTicks::OFF   8678545000                       # Cumulative time (in ticks) in various power states

---------- End Simulation Statistics   ----------
