
---------- Begin Simulation Statistics ----------
final_tick                                 3606840000                       # Number of ticks from beginning of simulation (restored from checkpoints and never reset)
host_inst_rate                                 117582                       # Simulator instruction rate (inst/s)
host_mem_usage                                 878088                       # Number of bytes of host memory used
host_op_rate                                   213997                       # Simulator op (including micro ops) rate (op/s)
host_seconds                                    85.05                       # Real time elapsed on the host
host_tick_rate                               42409964                       # Simulator tick rate (ticks/s)
sim_freq                                 1000000000000                       # Frequency of simulated ticks
sim_insts                                    10000014                       # Number of instructions simulated
sim_ops                                      18199791                       # Number of ops (including micro ops) simulated
sim_seconds                                  0.003607                       # Number of seconds simulated
sim_ticks                                  3606840000                       # Number of ticks simulated
system.cpu.Branches                                 1                       # Number of branches fetched
system.cpu.committedInsts                          10                       # Number of instructions committed
system.cpu.committedOps                            21                       # Number of ops (including micro ops) committed
system.cpu.dtb.rdAccesses                           0                       # TLB accesses on read requests
system.cpu.dtb.rdMisses                             0                       # TLB misses on read requests
system.cpu.dtb.wrAccesses                           7                       # TLB accesses on write requests
system.cpu.dtb.wrMisses                             1                       # TLB misses on write requests
system.cpu.idle_fraction                            0                       # Percentage of idle cycles
system.cpu.itb.rdAccesses                           0                       # TLB accesses on read requests
system.cpu.itb.rdMisses                             0                       # TLB misses on read requests
system.cpu.itb.wrAccesses                          10                       # TLB accesses on write requests
system.cpu.itb.wrMisses                             0                       # TLB misses on write requests
system.cpu.not_idle_fraction                        1                       # Percentage of non-idle cycles
system.cpu.numCycles                               21                       # number of cpu cycles simulated
system.cpu.numWorkItemsCompleted                    0                       # number of work items this cpu completed
system.cpu.numWorkItemsStarted                      0                       # number of work items this cpu started
system.cpu.num_busy_cycles                         21                       # Number of busy cycles
system.cpu.num_cc_register_writes                   2                       # number of times the CC registers were written
system.cpu.num_conditional_control_insts            0                       # number of instructions that are conditional controls
system.cpu.num_fp_alu_accesses                      0                       # Number of float alu accesses
system.cpu.num_fp_insts                             0                       # number of float instructions
system.cpu.num_fp_register_reads                    0                       # number of times the floating registers were read
system.cpu.num_fp_register_writes                   0                       # number of times the floating registers were written
system.cpu.num_func_calls                           1                       # number of times a function call or return occured
system.cpu.num_idle_cycles                          0                       # Number of idle cycles
system.cpu.num_int_alu_accesses                    21                       # Number of integer alu accesses
system.cpu.num_int_insts                           21                       # number of integer instructions
system.cpu.num_int_register_reads                  47                       # number of times the integer registers were read
system.cpu.num_int_register_writes                 13                       # number of times the integer registers were written
system.cpu.num_load_insts                           0                       # Number of load instructions
system.cpu.num_mem_refs                             7                       # number of memory refs
system.cpu.num_store_insts                          7                       # Number of store instructions
system.cpu.num_vec_alu_accesses                     0                       # Number of vector alu accesses
system.cpu.num_vec_insts                            0                       # number of vector instructions
system.cpu.num_vec_register_reads                   0                       # number of times the vector registers were read
system.cpu.num_vec_register_writes                  0                       # number of times the vector registers were written
system.cpu.op_class::No_OpClass                     0      0.00%      0.00% # Class of executed instruction
system.cpu.op_class::IntAlu                        14     66.67%     66.67% # Class of executed instruction
system.cpu.op_class::IntMult                        0      0.00%     66.67% # Class of executed instruction
system.cpu.op_class::IntDiv                         0      0.00%     66.67% # Class of executed instruction
system.cpu.op_class::FloatAdd                       0      0.00%     66.67% # Class of executed instruction
system.cpu.op_class::FloatCmp                       0      0.00%     66.67% # Class of executed instruction
system.cpu.op_class::FloatCvt                       0      0.00%     66.67% # Class of executed instruction
system.cpu.op_class::FloatMult                      0      0.00%     66.67% # Class of executed instruction
system.cpu.op_class::FloatMultAcc                   0      0.00%     66.67% # Class of executed instruction
system.cpu.op_class::FloatDiv                       0      0.00%     66.67% # Class of executed instruction
system.cpu.op_class::FloatMisc                      0      0.00%     66.67% # Class of executed instruction
system.cpu.op_class::FloatSqrt                      0      0.00%     66.67% # Class of executed instruction
system.cpu.op_class::SimdAdd                        0      0.00%     66.67% # Class of executed instruction
system.cpu.op_class::SimdAddAcc                     0      0.00%     66.67% # Class of executed instruction
system.cpu.op_class::SimdAlu                        0      0.00%     66.67% # Class of executed instruction
system.cpu.op_class::SimdCmp                        0      0.00%     66.67% # Class of executed instruction
system.cpu.op_class::SimdCvt                        0      0.00%     66.67% # Class of executed instruction
system.cpu.op_class::SimdMisc                       0      0.00%     66.67% # Class of executed instruction
system.cpu.op_class::SimdMult                       0      0.00%     66.67% # Class of executed instruction
system.cpu.op_class::SimdMultAcc                    0      0.00%     66.67% # Class of executed instruction
system.cpu.op_class::SimdShift                      0      0.00%     66.67% # Class of executed instruction
system.cpu.op_class::SimdShiftAcc                   0      0.00%     66.67% # Class of executed instruction
system.cpu.op_class::SimdDiv                        0      0.00%     66.67% # Class of executed instruction
system.cpu.op_class::SimdSqrt                       0      0.00%     66.67% # Class of executed instruction
system.cpu.op_class::SimdFloatAdd                   0      0.00%     66.67% # Class of executed instruction
system.cpu.op_class::SimdFloatAlu                   0      0.00%     66.67% # Class of executed instruction
system.cpu.op_class::SimdFloatCmp                   0      0.00%     66.67% # Class of executed instruction
system.cpu.op_class::SimdFloatCvt                   0      0.00%     66.67% # Class of executed instruction
system.cpu.op_class::SimdFloatDiv                   0      0.00%     66.67% # Class of executed instruction
system.cpu.op_class::SimdFloatMisc                  0      0.00%     66.67% # Class of executed instruction
system.cpu.op_class::SimdFloatMult                  0      0.00%     66.67% # Class of executed instruction
system.cpu.op_class::SimdFloatMultAcc               0      0.00%     66.67% # Class of executed instruction
system.cpu.op_class::SimdFloatSqrt                  0      0.00%     66.67% # Class of executed instruction
system.cpu.op_class::SimdReduceAdd                  0      0.00%     66.67% # Class of executed instruction
system.cpu.op_class::SimdReduceAlu                  0      0.00%     66.67% # Class of executed instruction
system.cpu.op_class::SimdReduceCmp                  0      0.00%     66.67% # Class of executed instruction
system.cpu.op_class::SimdFloatReduceAdd             0      0.00%     66.67% # Class of executed instruction
system.cpu.op_class::SimdFloatReduceCmp             0      0.00%     66.67% # Class of executed instruction
system.cpu.op_class::SimdAes                        0      0.00%     66.67% # Class of executed instruction
system.cpu.op_class::SimdAesMix                     0      0.00%     66.67% # Class of executed instruction
system.cpu.op_class::SimdSha1Hash                   0      0.00%     66.67% # Class of executed instruction
system.cpu.op_class::SimdSha1Hash2                  0      0.00%     66.67% # Class of executed instruction
system.cpu.op_class::SimdSha256Hash                 0      0.00%     66.67% # Class of executed instruction
system.cpu.op_class::SimdSha256Hash2                0      0.00%     66.67% # Class of executed instruction
system.cpu.op_class::SimdShaSigma2                  0      0.00%     66.67% # Class of executed instruction
system.cpu.op_class::SimdShaSigma3                  0      0.00%     66.67% # Class of executed instruction
system.cpu.op_class::SimdPredAlu                    0      0.00%     66.67% # Class of executed instruction
system.cpu.op_class::MemRead                        0      0.00%     66.67% # Class of executed instruction
system.cpu.op_class::MemWrite                       7     33.33%    100.00% # Class of executed instruction
system.cpu.op_class::FloatMemRead                   0      0.00%    100.00% # Class of executed instruction
system.cpu.op_class::FloatMemWrite                  0      0.00%    100.00% # Class of executed instruction
system.cpu.op_class::IprAccess                      0      0.00%    100.00% # Class of executed instruction
system.cpu.op_class::InstPrefetch                   0      0.00%    100.00% # Class of executed instruction
system.cpu.op_class::total                         21                       # Class of executed instruction
system.cpu.workload.numSyscalls                    47                       # Number of system calls
system.membus.snoop_filter.hit_multi_requests            0                       # Number of requests hitting in the snoop filter with multiple (>1) holders of the requested data.
system.membus.snoop_filter.hit_multi_snoops            0                       # Number of snoops hitting in the snoop filter with multiple (>1) holders of the requested data.
system.membus.snoop_filter.hit_single_requests        16869                       # Number of requests hitting in the snoop filter with a single holder of the requested data.
system.membus.snoop_filter.hit_single_snoops            0                       # Number of snoops hitting in the snoop filter with a single holder of the requested data.
system.membus.snoop_filter.tot_requests         34052                       # Total number of requests made to the snoop filter.
system.membus.snoop_filter.tot_snoops               0                       # Total number of snoops made to the snoop filter.
system.switch_cpus.branchPred.BTBCorrect            0                       # Number of correct BTB predictions (this stat may not work properly.
system.switch_cpus.branchPred.BTBHitPct           nan                       # BTB Hit Percentage
system.switch_cpus.branchPred.BTBHits               0                       # Number of BTB hits
system.switch_cpus.branchPred.BTBLookups            0                       # Number of BTB lookups
system.switch_cpus.branchPred.RASInCorrect            6                       # Number of incorrect RAS predictions.
system.switch_cpus.branchPred.condIncorrect        29672                       # Number of conditional branches incorrect
system.switch_cpus.branchPred.condPredicted      1830344                       # Number of conditional branches predicted
system.switch_cpus.branchPred.indirectHits       862708                       # Number of indirect target hits.
system.switch_cpus.branchPred.indirectLookups       884729                       # Number of indirect predictor lookups.
system.switch_cpus.branchPred.indirectMisses        22021                       # Number of indirect misses.
system.switch_cpus.branchPred.lookups         1861258                       # Number of BP lookups
system.switch_cpus.branchPred.usedRAS           14713                       # Number of times the RAS was used to get a target.
system.switch_cpus.branchPredindirectMispredicted         4506                       # Number of mispredicted indirect branches.
system.switch_cpus.cc_regfile_reads           8662516                       # number of cc regfile reads
system.switch_cpus.cc_regfile_writes          7110042                       # number of cc regfile writes
system.switch_cpus.commit.amos                      0                       # Number of atomic instructions committed
system.switch_cpus.commit.branchMispredicts        30370                       # The number of times a branch was mispredicted
system.switch_cpus.commit.branches            1636876                       # Number of branches committed
system.switch_cpus.commit.bw_lim_events       1550126                       # number cycles where commit BW limit reached
system.switch_cpus.commit.commitNonSpecStalls          128                       # The number of times commit has been forced to stall to communicate backwards
system.switch_cpus.commit.commitSquashedInsts      1347580                       # The number of squashed insts skipped by commit
system.switch_cpus.commit.committedInsts     10000004                       # Number of instructions committed
system.switch_cpus.commit.committedOps       18199770                       # Number of ops (including micro ops) committed
system.switch_cpus.commit.committed_per_cycle::samples      6893301                       # Number of insts commited each cycle
system.switch_cpus.commit.committed_per_cycle::mean     2.640211                       # Number of insts commited each cycle
system.switch_cpus.commit.committed_per_cycle::stdev     3.214175                       # Number of insts commited each cycle
system.switch_cpus.commit.committed_per_cycle::underflows            0      0.00%      0.00% # Number of insts commited each cycle
system.switch_cpus.commit.committed_per_cycle::0      2863442     41.54%     41.54% # Number of insts commited each cycle
system.switch_cpus.commit.committed_per_cycle::1      1105601     16.04%     57.58% # Number of insts commited each cycle
system.switch_cpus.commit.committed_per_cycle::2       461517      6.70%     64.27% # Number of insts commited each cycle
system.switch_cpus.commit.committed_per_cycle::3       465829      6.76%     71.03% # Number of insts commited each cycle
system.switch_cpus.commit.committed_per_cycle::4        38305      0.56%     71.59% # Number of insts commited each cycle
system.switch_cpus.commit.committed_per_cycle::5       302024      4.38%     75.97% # Number of insts commited each cycle
system.switch_cpus.commit.committed_per_cycle::6        35899      0.52%     76.49% # Number of insts commited each cycle
system.switch_cpus.commit.committed_per_cycle::7        70558      1.02%     77.51% # Number of insts commited each cycle
system.switch_cpus.commit.committed_per_cycle::8      1550126     22.49%    100.00% # Number of insts commited each cycle
system.switch_cpus.commit.committed_per_cycle::overflows            0      0.00%    100.00% # Number of insts commited each cycle
system.switch_cpus.commit.committed_per_cycle::min_value            0                       # Number of insts commited each cycle
system.switch_cpus.commit.committed_per_cycle::max_value            8                       # Number of insts commited each cycle
system.switch_cpus.commit.committed_per_cycle::total      6893301                       # Number of insts commited each cycle
system.switch_cpus.commit.fp_insts               1051                       # Number of committed floating point instructions.
system.switch_cpus.commit.function_calls        10469                       # Number of function calls committed.
system.switch_cpus.commit.int_insts          18156355                       # Number of committed integer instructions.
system.switch_cpus.commit.loads               4782845                       # Number of loads committed
system.switch_cpus.commit.membars                   0                       # Number of memory barriers committed
system.switch_cpus.commit.op_class_0::No_OpClass        43154      0.24%      0.24% # Class of committed instruction
system.switch_cpus.commit.op_class_0::IntAlu     11480241     63.08%     63.32% # Class of committed instruction
system.switch_cpus.commit.op_class_0::IntMult           80      0.00%     63.32% # Class of committed instruction
system.switch_cpus.commit.op_class_0::IntDiv         1436      0.01%     63.32% # Class of committed instruction
system.switch_cpus.commit.op_class_0::FloatAdd           77      0.00%     63.32% # Class of committed instruction
system.switch_cpus.commit.op_class_0::FloatCmp            0      0.00%     63.32% # Class of committed instruction
system.switch_cpus.commit.op_class_0::FloatCvt          144      0.00%     63.33% # Class of committed instruction
system.switch_cpus.commit.op_class_0::FloatMult            0      0.00%     63.33% # Class of committed instruction
system.switch_cpus.commit.op_class_0::FloatMultAcc            0      0.00%     63.33% # Class of committed instruction
system.switch_cpus.commit.op_class_0::FloatDiv            0      0.00%     63.33% # Class of committed instruction
system.switch_cpus.commit.op_class_0::FloatMisc            0      0.00%     63.33% # Class of committed instruction
system.switch_cpus.commit.op_class_0::FloatSqrt            0      0.00%     63.33% # Class of committed instruction
system.switch_cpus.commit.op_class_0::SimdAdd            0      0.00%     63.33% # Class of committed instruction
system.switch_cpus.commit.op_class_0::SimdAddAcc            0      0.00%     63.33% # Class of committed instruction
system.switch_cpus.commit.op_class_0::SimdAlu           22      0.00%     63.33% # Class of committed instruction
system.switch_cpus.commit.op_class_0::SimdCmp            0      0.00%     63.33% # Class of committed instruction
system.switch_cpus.commit.op_class_0::SimdCvt           64      0.00%     63.33% # Class of committed instruction
system.switch_cpus.commit.op_class_0::SimdMisc           99      0.00%     63.33% # Class of committed instruction
system.switch_cpus.commit.op_class_0::SimdMult            0      0.00%     63.33% # Class of committed instruction
system.switch_cpus.commit.op_class_0::SimdMultAcc            0      0.00%     63.33% # Class of committed instruction
system.switch_cpus.commit.op_class_0::SimdShift            0      0.00%     63.33% # Class of committed instruction
system.switch_cpus.commit.op_class_0::SimdShiftAcc            0      0.00%     63.33% # Class of committed instruction
system.switch_cpus.commit.op_class_0::SimdDiv            0      0.00%     63.33% # Class of committed instruction
system.switch_cpus.commit.op_class_0::SimdSqrt            0      0.00%     63.33% # Class of committed instruction
system.switch_cpus.commit.op_class_0::SimdFloatAdd            0      0.00%     63.33% # Class of committed instruction
system.switch_cpus.commit.op_class_0::SimdFloatAlu            0      0.00%     63.33% # Class of committed instruction
system.switch_cpus.commit.op_class_0::SimdFloatCmp            0      0.00%     63.33% # Class of committed instruction
system.switch_cpus.commit.op_class_0::SimdFloatCvt            0      0.00%     63.33% # Class of committed instruction
system.switch_cpus.commit.op_class_0::SimdFloatDiv            0      0.00%     63.33% # Class of committed instruction
system.switch_cpus.commit.op_class_0::SimdFloatMisc            0      0.00%     63.33% # Class of committed instruction
system.switch_cpus.commit.op_class_0::SimdFloatMult            0      0.00%     63.33% # Class of committed instruction
system.switch_cpus.commit.op_class_0::SimdFloatMultAcc            0      0.00%     63.33% # Class of committed instruction
system.switch_cpus.commit.op_class_0::SimdFloatSqrt            0      0.00%     63.33% # Class of committed instruction
system.switch_cpus.commit.op_class_0::SimdReduceAdd            0      0.00%     63.33% # Class of committed instruction
system.switch_cpus.commit.op_class_0::SimdReduceAlu            0      0.00%     63.33% # Class of committed instruction
system.switch_cpus.commit.op_class_0::SimdReduceCmp            0      0.00%     63.33% # Class of committed instruction
system.switch_cpus.commit.op_class_0::SimdFloatReduceAdd            0      0.00%     63.33% # Class of committed instruction
system.switch_cpus.commit.op_class_0::SimdFloatReduceCmp            0      0.00%     63.33% # Class of committed instruction
system.switch_cpus.commit.op_class_0::SimdAes            0      0.00%     63.33% # Class of committed instruction
system.switch_cpus.commit.op_class_0::SimdAesMix            0      0.00%     63.33% # Class of committed instruction
system.switch_cpus.commit.op_class_0::SimdSha1Hash            0      0.00%     63.33% # Class of committed instruction
system.switch_cpus.commit.op_class_0::SimdSha1Hash2            0      0.00%     63.33% # Class of committed instruction
system.switch_cpus.commit.op_class_0::SimdSha256Hash            0      0.00%     63.33% # Class of committed instruction
system.switch_cpus.commit.op_class_0::SimdSha256Hash2            0      0.00%     63.33% # Class of committed instruction
system.switch_cpus.commit.op_class_0::SimdShaSigma2            0      0.00%     63.33% # Class of committed instruction
system.switch_cpus.commit.op_class_0::SimdShaSigma3            0      0.00%     63.33% # Class of committed instruction
system.switch_cpus.commit.op_class_0::SimdPredAlu            0      0.00%     63.33% # Class of committed instruction
system.switch_cpus.commit.op_class_0::MemRead      4782521     26.28%     89.60% # Class of committed instruction
system.switch_cpus.commit.op_class_0::MemWrite      1891320     10.39%    100.00% # Class of committed instruction
system.switch_cpus.commit.op_class_0::FloatMemRead          324      0.00%    100.00% # Class of committed instruction
system.switch_cpus.commit.op_class_0::FloatMemWrite          288      0.00%    100.00% # Class of committed instruction
system.switch_cpus.commit.op_class_0::IprAccess            0      0.00%    100.00% # Class of committed instruction
system.switch_cpus.commit.op_class_0::InstPrefetch            0      0.00%    100.00% # Class of committed instruction
system.switch_cpus.commit.op_class_0::total     18199770                       # Class of committed instruction
system.switch_cpus.commit.refs                6674453                       # Number of memory references committed
system.switch_cpus.commit.swp_count                 0                       # Number of s/w prefetches committed
system.switch_cpus.commit.vec_insts                 0                       # Number of committed Vector instructions.
system.switch_cpus.committedInsts            10000004                       # Number of Instructions Simulated
system.switch_cpus.committedOps              18199770                       # Number of Ops (including micro ops) Simulated
system.switch_cpus.cpi                       0.721366                       # CPI: Cycles Per Instruction
system.switch_cpus.cpi_total                 0.721366                       # CPI: Total CPI of All Threads
system.switch_cpus.decode.BlockedCycles       3671298                       # Number of cycles decode is blocked
system.switch_cpus.decode.DecodedInsts       19917298                       # Number of instructions handled by decode
system.switch_cpus.decode.IdleCycles           766823                       # Number of cycles decode is idle
system.switch_cpus.decode.RunCycles           1969943                       # Number of cycles decode is running
system.switch_cpus.decode.SquashCycles          31726                       # Number of cycles decode is squashing
system.switch_cpus.decode.UnblockCycles        642705                       # Number of cycles decode is unblocking
system.switch_cpus.dtb.rdAccesses             4943343                       # TLB accesses on read requests
system.switch_cpus.dtb.rdMisses                  2009                       # TLB misses on read requests
system.switch_cpus.dtb.wrAccesses             1954113                       # TLB accesses on write requests
system.switch_cpus.dtb.wrMisses                 17874                       # TLB misses on write requests
system.switch_cpus.fetch.Branches             1861258                       # Number of branches that fetch encountered
system.switch_cpus.fetch.CacheLines           1277887                       # Number of cache lines fetched
system.switch_cpus.fetch.Cycles               5647652                       # Number of cycles fetch has run and was not squashing or blocked
system.switch_cpus.fetch.IcacheSquashes          6246                       # Number of outstanding Icache misses that were squashed
system.switch_cpus.fetch.IcacheWaitRetryStallCycles          214                       # Number of stall cycles due to full MSHR
system.switch_cpus.fetch.Insts               11245181                       # Number of instructions fetch has processed
system.switch_cpus.fetch.MiscStallCycles          741                       # Number of cycles fetch has spent waiting on interrupts, or bad addresses, or out of MSHRs
system.switch_cpus.fetch.PendingQuiesceStallCycles           11                       # Number of stall cycles due to pending quiesce instructions
system.switch_cpus.fetch.PendingTrapStallCycles         4732                       # Number of stall cycles due to pending traps
system.switch_cpus.fetch.SquashCycles           63452                       # Number of cycles fetch has spent squashing
system.switch_cpus.fetch.branchRate          0.258019                       # Number of branch fetches per cycle
system.switch_cpus.fetch.icacheStallCycles      1397421                       # Number of cycles fetch is stalled on an Icache miss
system.switch_cpus.fetch.predictedBranches       877421                       # Number of branches that fetch has predicted taken
system.switch_cpus.fetch.rate                1.558873                       # Number of inst fetches per cycle
system.switch_cpus.fetch.rateDist::samples      7082497                       # Number of instructions fetched each cycle (Total)
system.switch_cpus.fetch.rateDist::mean      2.885259                       # Number of instructions fetched each cycle (Total)
system.switch_cpus.fetch.rateDist::stdev     3.619598                       # Number of instructions fetched each cycle (Total)
system.switch_cpus.fetch.rateDist::underflows            0      0.00%      0.00% # Number of instructions fetched each cycle (Total)
system.switch_cpus.fetch.rateDist::0          4131181     58.33%     58.33% # Number of instructions fetched each cycle (Total)
system.switch_cpus.fetch.rateDist::1            71195      1.01%     59.33% # Number of instructions fetched each cycle (Total)
system.switch_cpus.fetch.rateDist::2            39375      0.56%     59.89% # Number of instructions fetched each cycle (Total)
system.switch_cpus.fetch.rateDist::3           226652      3.20%     63.09% # Number of instructions fetched each cycle (Total)
system.switch_cpus.fetch.rateDist::4            54590      0.77%     63.86% # Number of instructions fetched each cycle (Total)
system.switch_cpus.fetch.rateDist::5           112298      1.59%     65.45% # Number of instructions fetched each cycle (Total)
system.switch_cpus.fetch.rateDist::6           234426      3.31%     68.76% # Number of instructions fetched each cycle (Total)
system.switch_cpus.fetch.rateDist::7           283711      4.01%     72.76% # Number of instructions fetched each cycle (Total)
system.switch_cpus.fetch.rateDist::8          1929069     27.24%    100.00% # Number of instructions fetched each cycle (Total)
system.switch_cpus.fetch.rateDist::overflows            0      0.00%    100.00% # Number of instructions fetched each cycle (Total)
system.switch_cpus.fetch.rateDist::min_value            0                       # Number of instructions fetched each cycle (Total)
system.switch_cpus.fetch.rateDist::max_value            8                       # Number of instructions fetched each cycle (Total)
system.switch_cpus.fetch.rateDist::total      7082497                       # Number of instructions fetched each cycle (Total)
system.switch_cpus.fp_regfile_reads              1024                       # number of floating regfile reads
system.switch_cpus.fp_regfile_writes              654                       # number of floating regfile writes
system.switch_cpus.idleCycles                  131162                       # Total number of cycles that the CPU has spent unscheduled due to idling
system.switch_cpus.iew.branchMispredicts        34056                       # Number of branch mispredicts detected at execute
system.switch_cpus.iew.exec_branches          1715362                       # Number of branches executed
system.switch_cpus.iew.exec_nop                     0                       # number of nop insts executed
system.switch_cpus.iew.exec_rate             2.649239                       # Inst execution rate
system.switch_cpus.iew.exec_refs              6913739                       # number of memory reference insts executed
system.switch_cpus.iew.exec_stores            1954112                       # Number of stores executed
system.switch_cpus.iew.exec_swp                     0                       # number of swp insts executed
system.switch_cpus.iew.iewBlockCycles          400742                       # Number of cycles IEW is blocking
system.switch_cpus.iew.iewDispLoadInsts       5033575                       # Number of dispatched load instructions
system.switch_cpus.iew.iewDispNonSpecInsts          207                       # Number of dispatched non-speculative instructions
system.switch_cpus.iew.iewDispSquashedInsts         2268                       # Number of squashed instructions skipped by dispatch
system.switch_cpus.iew.iewDispStoreInsts      2021378                       # Number of dispatched store instructions
system.switch_cpus.iew.iewDispatchedInsts     19548510                       # Number of instructions dispatched to IQ
system.switch_cpus.iew.iewExecLoadInsts       4959627                       # Number of load instructions executed
system.switch_cpus.iew.iewExecSquashedInsts        68343                       # Number of squashed instructions skipped in execute
system.switch_cpus.iew.iewExecutedInsts      19110705                       # Number of executed instructions
system.switch_cpus.iew.iewIQFullEvents           1383                       # Number of times the IQ has become full, causing a stall
system.switch_cpus.iew.iewIdleCycles                0                       # Number of cycles IEW is idle
system.switch_cpus.iew.iewLSQFullEvents        111636                       # Number of times the LSQ has become full, causing a stall
system.switch_cpus.iew.iewSquashCycles          31726                       # Number of cycles IEW is squashing
system.switch_cpus.iew.iewUnblockCycles        114583                       # Number of cycles IEW is unblocking
system.switch_cpus.iew.lsq.thread0.blockedLoads            0                       # Number of blocked loads due to partial load-store forwarding
system.switch_cpus.iew.lsq.thread0.cacheBlocked         5654                       # Number of times an access to memory failed due to the cache being blocked
system.switch_cpus.iew.lsq.thread0.forwLoads      2350379                       # Number of loads that had data forwarded from stores
system.switch_cpus.iew.lsq.thread0.ignoredResponses          819                       # Number of memory responses ignored because the instruction is squashed
system.switch_cpus.iew.lsq.thread0.invAddrLoads            0                       # Number of loads ignored due to an invalid address
system.switch_cpus.iew.lsq.thread0.invAddrSwpfs            0                       # Number of software prefetches ignored due to an invalid address
system.switch_cpus.iew.lsq.thread0.memOrderViolation          468                       # Number of memory ordering violations
system.switch_cpus.iew.lsq.thread0.rescheduledLoads           14                       # Number of loads that were rescheduled
system.switch_cpus.iew.lsq.thread0.squashedLoads       250718                       # Number of loads squashed
system.switch_cpus.iew.lsq.thread0.squashedStores       129767                       # Number of stores squashed
system.switch_cpus.iew.memOrderViolationEvents          468                       # Number of memory order violations
system.switch_cpus.iew.predictedNotTakenIncorrect        16485                       # Number of branches that were predicted not taken incorrectly
system.switch_cpus.iew.predictedTakenIncorrect        17571                       # Number of branches that were predicted taken incorrectly
system.switch_cpus.iew.wb_consumers          21920106                       # num instructions consuming a value
system.switch_cpus.iew.wb_count              19039255                       # cumulative count of insts written-back
system.switch_cpus.iew.wb_fanout             0.680481                       # average fanout of values written-back
system.switch_cpus.iew.wb_producers          14916223                       # num instructions producing a value
system.switch_cpus.iew.wb_rate               2.639334                       # insts written-back per cycle
system.switch_cpus.iew.wb_sent               19070376                       # cumulative count of insts sent to commit
system.switch_cpus.int_regfile_reads         29784328                       # number of integer regfile reads
system.switch_cpus.int_regfile_writes        15386046                       # number of integer regfile writes
system.switch_cpus.ipc                       1.386260                       # IPC: Instructions Per Cycle
system.switch_cpus.ipc_total                 1.386260                       # IPC: Total IPC of All Threads
system.switch_cpus.iq.FU_type_0::No_OpClass        49332      0.26%      0.26% # Type of FU issued
system.switch_cpus.iq.FU_type_0::IntAlu      12184116     63.53%     63.79% # Type of FU issued
system.switch_cpus.iq.FU_type_0::IntMult          126      0.00%     63.79% # Type of FU issued
system.switch_cpus.iq.FU_type_0::IntDiv          1494      0.01%     63.79% # Type of FU issued
system.switch_cpus.iq.FU_type_0::FloatAdd           78      0.00%     63.79% # Type of FU issued
system.switch_cpus.iq.FU_type_0::FloatCmp            0      0.00%     63.79% # Type of FU issued
system.switch_cpus.iq.FU_type_0::FloatCvt          144      0.00%     63.80% # Type of FU issued
system.switch_cpus.iq.FU_type_0::FloatMult            0      0.00%     63.80% # Type of FU issued
system.switch_cpus.iq.FU_type_0::FloatMultAcc            0      0.00%     63.80% # Type of FU issued
system.switch_cpus.iq.FU_type_0::FloatDiv            0      0.00%     63.80% # Type of FU issued
system.switch_cpus.iq.FU_type_0::FloatMisc            0      0.00%     63.80% # Type of FU issued
system.switch_cpus.iq.FU_type_0::FloatSqrt            0      0.00%     63.80% # Type of FU issued
system.switch_cpus.iq.FU_type_0::SimdAdd            0      0.00%     63.80% # Type of FU issued
system.switch_cpus.iq.FU_type_0::SimdAddAcc            0      0.00%     63.80% # Type of FU issued
system.switch_cpus.iq.FU_type_0::SimdAlu           40      0.00%     63.80% # Type of FU issued
system.switch_cpus.iq.FU_type_0::SimdCmp            0      0.00%     63.80% # Type of FU issued
system.switch_cpus.iq.FU_type_0::SimdCvt           74      0.00%     63.80% # Type of FU issued
system.switch_cpus.iq.FU_type_0::SimdMisc          115      0.00%     63.80% # Type of FU issued
system.switch_cpus.iq.FU_type_0::SimdMult            0      0.00%     63.80% # Type of FU issued
system.switch_cpus.iq.FU_type_0::SimdMultAcc            0      0.00%     63.80% # Type of FU issued
system.switch_cpus.iq.FU_type_0::SimdShift            0      0.00%     63.80% # Type of FU issued
system.switch_cpus.iq.FU_type_0::SimdShiftAcc            0      0.00%     63.80% # Type of FU issued
system.switch_cpus.iq.FU_type_0::SimdDiv            0      0.00%     63.80% # Type of FU issued
system.switch_cpus.iq.FU_type_0::SimdSqrt            0      0.00%     63.80% # Type of FU issued
system.switch_cpus.iq.FU_type_0::SimdFloatAdd            0      0.00%     63.80% # Type of FU issued
system.switch_cpus.iq.FU_type_0::SimdFloatAlu            0      0.00%     63.80% # Type of FU issued
system.switch_cpus.iq.FU_type_0::SimdFloatCmp            0      0.00%     63.80% # Type of FU issued
system.switch_cpus.iq.FU_type_0::SimdFloatCvt            0      0.00%     63.80% # Type of FU issued
system.switch_cpus.iq.FU_type_0::SimdFloatDiv            0      0.00%     63.80% # Type of FU issued
system.switch_cpus.iq.FU_type_0::SimdFloatMisc            0      0.00%     63.80% # Type of FU issued
system.switch_cpus.iq.FU_type_0::SimdFloatMult            0      0.00%     63.80% # Type of FU issued
system.switch_cpus.iq.FU_type_0::SimdFloatMultAcc            0      0.00%     63.80% # Type of FU issued
system.switch_cpus.iq.FU_type_0::SimdFloatSqrt            0      0.00%     63.80% # Type of FU issued
system.switch_cpus.iq.FU_type_0::SimdReduceAdd            0      0.00%     63.80% # Type of FU issued
system.switch_cpus.iq.FU_type_0::SimdReduceAlu            0      0.00%     63.80% # Type of FU issued
system.switch_cpus.iq.FU_type_0::SimdReduceCmp            0      0.00%     63.80% # Type of FU issued
system.switch_cpus.iq.FU_type_0::SimdFloatReduceAdd            0      0.00%     63.80% # Type of FU issued
system.switch_cpus.iq.FU_type_0::SimdFloatReduceCmp            0      0.00%     63.80% # Type of FU issued
system.switch_cpus.iq.FU_type_0::SimdAes            0      0.00%     63.80% # Type of FU issued
system.switch_cpus.iq.FU_type_0::SimdAesMix            0      0.00%     63.80% # Type of FU issued
system.switch_cpus.iq.FU_type_0::SimdSha1Hash            0      0.00%     63.80% # Type of FU issued
system.switch_cpus.iq.FU_type_0::SimdSha1Hash2            0      0.00%     63.80% # Type of FU issued
system.switch_cpus.iq.FU_type_0::SimdSha256Hash            0      0.00%     63.80% # Type of FU issued
system.switch_cpus.iq.FU_type_0::SimdSha256Hash2            0      0.00%     63.80% # Type of FU issued
system.switch_cpus.iq.FU_type_0::SimdShaSigma2            0      0.00%     63.80% # Type of FU issued
system.switch_cpus.iq.FU_type_0::SimdShaSigma3            0      0.00%     63.80% # Type of FU issued
system.switch_cpus.iq.FU_type_0::SimdPredAlu            0      0.00%     63.80% # Type of FU issued
system.switch_cpus.iq.FU_type_0::MemRead      4983813     25.99%     89.78% # Type of FU issued
system.switch_cpus.iq.FU_type_0::MemWrite      1959005     10.21%    100.00% # Type of FU issued
system.switch_cpus.iq.FU_type_0::FloatMemRead          348      0.00%    100.00% # Type of FU issued
system.switch_cpus.iq.FU_type_0::FloatMemWrite          368      0.00%    100.00% # Type of FU issued
system.switch_cpus.iq.FU_type_0::IprAccess            0      0.00%    100.00% # Type of FU issued
system.switch_cpus.iq.FU_type_0::InstPrefetch            0      0.00%    100.00% # Type of FU issued
system.switch_cpus.iq.FU_type_0::total       19179053                       # Type of FU issued
system.switch_cpus.iq.fp_alu_accesses            1277                       # Number of floating point alu accesses
system.switch_cpus.iq.fp_inst_queue_reads         2487                       # Number of floating instruction queue reads
system.switch_cpus.iq.fp_inst_queue_wakeup_accesses         1177                       # Number of floating instruction queue wakeup accesses
system.switch_cpus.iq.fp_inst_queue_writes         1449                       # Number of floating instruction queue writes
system.switch_cpus.iq.fu_busy_cnt               82084                       # FU busy when requested
system.switch_cpus.iq.fu_busy_rate           0.004280                       # FU busy rate (busy events/executed inst)
system.switch_cpus.iq.fu_full::No_OpClass            0      0.00%      0.00% # attempts to use FU when none available
system.switch_cpus.iq.fu_full::IntAlu           55855     68.05%     68.05% # attempts to use FU when none available
system.switch_cpus.iq.fu_full::IntMult              0      0.00%     68.05% # attempts to use FU when none available
system.switch_cpus.iq.fu_full::IntDiv               0      0.00%     68.05% # attempts to use FU when none available
system.switch_cpus.iq.fu_full::FloatAdd             0      0.00%     68.05% # attempts to use FU when none available
system.switch_cpus.iq.fu_full::FloatCmp             0      0.00%     68.05% # attempts to use FU when none available
system.switch_cpus.iq.fu_full::FloatCvt             0      0.00%     68.05% # attempts to use FU when none available
system.switch_cpus.iq.fu_full::FloatMult            0      0.00%     68.05% # attempts to use FU when none available
system.switch_cpus.iq.fu_full::FloatMultAcc            0      0.00%     68.05% # attempts to use FU when none available
system.switch_cpus.iq.fu_full::FloatDiv             0      0.00%     68.05% # attempts to use FU when none available
system.switch_cpus.iq.fu_full::FloatMisc            0      0.00%     68.05% # attempts to use FU when none available
system.switch_cpus.iq.fu_full::FloatSqrt            0      0.00%     68.05% # attempts to use FU when none available
system.switch_cpus.iq.fu_full::SimdAdd              0      0.00%     68.05% # attempts to use FU when none available
system.switch_cpus.iq.fu_full::SimdAddAcc            0      0.00%     68.05% # attempts to use FU when none available
system.switch_cpus.iq.fu_full::SimdAlu              0      0.00%     68.05% # attempts to use FU when none available
system.switch_cpus.iq.fu_full::SimdCmp              0      0.00%     68.05% # attempts to use FU when none available
system.switch_cpus.iq.fu_full::SimdCvt              1      0.00%     68.05% # attempts to use FU when none available
system.switch_cpus.iq.fu_full::SimdMisc             0      0.00%     68.05% # attempts to use FU when none available
system.switch_cpus.iq.fu_full::SimdMult             0      0.00%     68.05% # attempts to use FU when none available
system.switch_cpus.iq.fu_full::SimdMultAcc            0      0.00%     68.05% # attempts to use FU when none available
system.switch_cpus.iq.fu_full::SimdShift            0      0.00%     68.05% # attempts to use FU when none available
system.switch_cpus.iq.fu_full::SimdShiftAcc            0      0.00%     68.05% # attempts to use FU when none available
system.switch_cpus.iq.fu_full::SimdDiv              0      0.00%     68.05% # attempts to use FU when none available
system.switch_cpus.iq.fu_full::SimdSqrt             0      0.00%     68.05% # attempts to use FU when none available
system.switch_cpus.iq.fu_full::SimdFloatAdd            0      0.00%     68.05% # attempts to use FU when none available
system.switch_cpus.iq.fu_full::SimdFloatAlu            0      0.00%     68.05% # attempts to use FU when none available
system.switch_cpus.iq.fu_full::SimdFloatCmp            0      0.00%     68.05% # attempts to use FU when none available
system.switch_cpus.iq.fu_full::SimdFloatCvt            0      0.00%     68.05% # attempts to use FU when none available
system.switch_cpus.iq.fu_full::SimdFloatDiv            0      0.00%     68.05% # attempts to use FU when none available
system.switch_cpus.iq.fu_full::SimdFloatMisc            0      0.00%     68.05% # attempts to use FU when none available
system.switch_cpus.iq.fu_full::SimdFloatMult            0      0.00%     68.05% # attempts to use FU when none available
system.switch_cpus.iq.fu_full::SimdFloatMultAcc            0      0.00%     68.05% # attempts to use FU when none available
system.switch_cpus.iq.fu_full::SimdFloatSqrt            0      0.00%     68.05% # attempts to use FU when none available
system.switch_cpus.iq.fu_full::SimdReduceAdd            0      0.00%     68.05% # attempts to use FU when none available
system.switch_cpus.iq.fu_full::SimdReduceAlu            0      0.00%     68.05% # attempts to use FU when none available
system.switch_cpus.iq.fu_full::SimdReduceCmp            0      0.00%     68.05% # attempts to use FU when none available
system.switch_cpus.iq.fu_full::SimdFloatReduceAdd            0      0.00%     68.05% # attempts to use FU when none available
system.switch_cpus.iq.fu_full::SimdFloatReduceCmp            0      0.00%     68.05% # attempts to use FU when none available
system.switch_cpus.iq.fu_full::SimdAes              0      0.00%     68.05% # attempts to use FU when none available
system.switch_cpus.iq.fu_full::SimdAesMix            0      0.00%     68.05% # attempts to use FU when none available
system.switch_cpus.iq.fu_full::SimdSha1Hash            0      0.00%     68.05% # attempts to use FU when none available
system.switch_cpus.iq.fu_full::SimdSha1Hash2            0      0.00%     68.05% # attempts to use FU when none available
system.switch_cpus.iq.fu_full::SimdSha256Hash            0      0.00%     68.05% # attempts to use FU when none available
system.switch_cpus.iq.fu_full::SimdSha256Hash2            0      0.00%     68.05% # attempts to use FU when none available
system.switch_cpus.iq.fu_full::SimdShaSigma2            0      0.00%     68.05% # attempts to use FU when none available
system.switch_cpus.iq.fu_full::SimdShaSigma3            0      0.00%     68.05% # attempts to use FU when none available
system.switch_cpus.iq.fu_full::SimdPredAlu            0      0.00%     68.05% # attempts to use FU when none available
system.switch_cpus.iq.fu_full::MemRead          20464     24.93%     92.98% # attempts to use FU when none available
system.switch_cpus.iq.fu_full::MemWrite          5693      6.94%     99.91% # attempts to use FU when none available
system.switch_cpus.iq.fu_full::FloatMemRead           38      0.05%     99.96% # attempts to use FU when none available
system.switch_cpus.iq.fu_full::FloatMemWrite           33      0.04%    100.00% # attempts to use FU when none available
system.switch_cpus.iq.fu_full::IprAccess            0      0.00%    100.00% # attempts to use FU when none available
system.switch_cpus.iq.fu_full::InstPrefetch            0      0.00%    100.00% # attempts to use FU when none available
system.switch_cpus.iq.int_alu_accesses       19210528                       # Number of integer alu accesses
system.switch_cpus.iq.int_inst_queue_reads     45523989                       # Number of integer instruction queue reads
system.switch_cpus.iq.int_inst_queue_wakeup_accesses     19038078                       # Number of integer instruction queue wakeup accesses
system.switch_cpus.iq.int_inst_queue_writes     20896214                       # Number of integer instruction queue writes
system.switch_cpus.iq.iqInstsAdded           19548202                       # Number of instructions added to the IQ (excludes non-spec)
system.switch_cpus.iq.iqInstsIssued          19179053                       # Number of instructions issued
system.switch_cpus.iq.iqNonSpecInstsAdded          308                       # Number of non-speculative instructions added to the IQ
system.switch_cpus.iq.iqSquashedInstsExamined      1348704                       # Number of squashed instructions iterated over during squash; mainly for profiling
system.switch_cpus.iq.iqSquashedInstsIssued         3794                       # Number of squashed instructions issued
system.switch_cpus.iq.iqSquashedNonSpecRemoved          180                       # Number of squashed non-spec instructions that were removed
system.switch_cpus.iq.iqSquashedOperandsExamined      1610879                       # Number of squashed operands that are examined and possibly removed from graph
system.switch_cpus.iq.issued_per_cycle::samples      7082497                       # Number of insts issued each cycle
system.switch_cpus.iq.issued_per_cycle::mean     2.707951                       # Number of insts issued each cycle
system.switch_cpus.iq.issued_per_cycle::stdev     2.485595                       # Number of insts issued each cycle
system.switch_cpus.iq.issued_per_cycle::underflows            0      0.00%      0.00% # Number of insts issued each cycle
system.switch_cpus.iq.issued_per_cycle::0      2176729     30.73%     30.73% # Number of insts issued each cycle
system.switch_cpus.iq.issued_per_cycle::1       634430      8.96%     39.69% # Number of insts issued each cycle
system.switch_cpus.iq.issued_per_cycle::2       877455     12.39%     52.08% # Number of insts issued each cycle
system.switch_cpus.iq.issued_per_cycle::3       737717     10.42%     62.50% # Number of insts issued each cycle
system.switch_cpus.iq.issued_per_cycle::4       869105     12.27%     74.77% # Number of insts issued each cycle
system.switch_cpus.iq.issued_per_cycle::5       576101      8.13%     82.90% # Number of insts issued each cycle
system.switch_cpus.iq.issued_per_cycle::6       560095      7.91%     90.81% # Number of insts issued each cycle
system.switch_cpus.iq.issued_per_cycle::7       347853      4.91%     95.72% # Number of insts issued each cycle
system.switch_cpus.iq.issued_per_cycle::8       303012      4.28%    100.00% # Number of insts issued each cycle
system.switch_cpus.iq.issued_per_cycle::overflows            0      0.00%    100.00% # Number of insts issued each cycle
system.switch_cpus.iq.issued_per_cycle::min_value            0                       # Number of insts issued each cycle
system.switch_cpus.iq.issued_per_cycle::max_value            8                       # Number of insts issued each cycle
system.switch_cpus.iq.issued_per_cycle::total      7082497                       # Number of insts issued each cycle
system.switch_cpus.iq.rate                   2.658714                       # Inst issue rate
system.switch_cpus.iq.vec_alu_accesses              0                       # Number of vector alu accesses
system.switch_cpus.iq.vec_inst_queue_reads            0                       # Number of vector instruction queue reads
system.switch_cpus.iq.vec_inst_queue_wakeup_accesses            0                       # Number of vector instruction queue wakeup accesses
system.switch_cpus.iq.vec_inst_queue_writes            0                       # Number of vector instruction queue writes
system.switch_cpus.itb.rdAccesses                   0                       # TLB accesses on read requests
system.switch_cpus.itb.rdMisses                     0                       # TLB misses on read requests
system.switch_cpus.itb.wrAccesses             1278640                       # TLB accesses on write requests
system.switch_cpus.itb.wrMisses                   857                       # TLB misses on write requests
system.switch_cpus.memDep0.conflictingLoads      1103718                       # Number of conflicting loads.
system.switch_cpus.memDep0.conflictingStores       361647                       # Number of conflicting stores.
system.switch_cpus.memDep0.insertedLoads      5033575                       # Number of loads inserted to the mem dependence unit.
system.switch_cpus.memDep0.insertedStores      2021378                       # Number of stores inserted to the mem dependence unit.
system.switch_cpus.misc_regfile_reads        10309369                       # number of misc regfile reads
system.switch_cpus.misc_regfile_writes             82                       # number of misc regfile writes
system.switch_cpus.numCycles                  7213659                       # number of cpu cycles simulated
system.switch_cpus.numWorkItemsCompleted            0                       # number of work items this cpu completed
system.switch_cpus.numWorkItemsStarted              0                       # number of work items this cpu started
system.switch_cpus.rename.BlockCycles         1079156                       # Number of cycles rename is blocking
system.switch_cpus.rename.CommittedMaps      21474218                       # Number of HB maps that are committed
system.switch_cpus.rename.IQFullEvents         147814                       # Number of times rename has blocked due to IQ full
system.switch_cpus.rename.IdleCycles          1123765                       # Number of cycles rename is idle
system.switch_cpus.rename.LQFullEvents         286218                       # Number of times rename has blocked due to LQ full
system.switch_cpus.rename.ROBFullEvents         10095                       # Number of times rename has blocked due to ROB full
system.switch_cpus.rename.RenameLookups      50719767                       # Number of register rename lookups that rename has made
system.switch_cpus.rename.RenamedInsts       19771992                       # Number of instructions processed by rename
system.switch_cpus.rename.RenamedOperands     23439459                       # Number of destination operands rename has renamed
system.switch_cpus.rename.RunCycles           2250192                       # Number of cycles rename is running
system.switch_cpus.rename.SQFullEvents        2006013                       # Number of times rename has blocked due to SQ full
system.switch_cpus.rename.SquashCycles          31726                       # Number of cycles rename is squashing
system.switch_cpus.rename.UnblockCycles       2592319                       # Number of cycles rename is unblocking
system.switch_cpus.rename.UndoneMaps          1965184                       # Number of HB maps that are undone due to squashing
system.switch_cpus.rename.fp_rename_lookups         1132                       # Number of floating rename lookups
system.switch_cpus.rename.int_rename_lookups     31019638                       # Number of integer rename lookups
system.switch_cpus.rename.serializeStallCycles         5338                       # count of cycles rename stalled for serializing inst
system.switch_cpus.rename.serializingInsts          192                       # count of serializing insts renamed
system.switch_cpus.rename.skidInsts           4110057                       # count of insts added to the skid buffer
system.switch_cpus.rename.tempSerializingInsts          168                       # count of temporary serializing insts renamed
system.switch_cpus.rob.rob_reads             24878487                       # The number of ROB reads
system.switch_cpus.rob.rob_writes            39284822                       # The number of ROB writes
system.switch_cpus.timesIdled                    2064                       # Number of times that the entire CPU went into an idle state and unscheduled itself
system.tol2bus.snoop_filter.hit_multi_requests            3                       # Number of requests hitting in the snoop filter with multiple (>1) holders of the requested data.
system.tol2bus.snoop_filter.hit_multi_snoops            0                       # Number of snoops hitting in the snoop filter with multiple (>1) holders of the requested data.
system.tol2bus.snoop_filter.hit_single_requests        38538                       # Number of requests hitting in the snoop filter with a single holder of the requested data.
system.tol2bus.snoop_filter.hit_single_snoops         2113                       # Number of snoops hitting in the snoop filter with a single holder of the requested data.
system.tol2bus.snoop_filter.tot_requests        77204                       # Total number of requests made to the snoop filter.
system.tol2bus.snoop_filter.tot_snoops           2113                       # Total number of snoops made to the snoop filter.
system.membus.trans_dist::ReadResp               9912                       # Transaction distribution
system.membus.trans_dist::WritebackDirty         7320                       # Transaction distribution
system.membus.trans_dist::CleanEvict             9549                       # Transaction distribution
system.membus.trans_dist::ReadExReq              7271                       # Transaction distribution
system.membus.trans_dist::ReadExResp             7271                       # Transaction distribution
system.membus.trans_dist::ReadSharedReq          9912                       # Transaction distribution
system.membus.pkt_count_system.l2.mem_side::system.mem_ctrls.port        51235                       # Packet count per connected master and slave (bytes)
system.membus.pkt_count_system.l2.mem_side::total        51235                       # Packet count per connected master and slave (bytes)
system.membus.pkt_count::total                  51235                       # Packet count per connected master and slave (bytes)
system.membus.pkt_size_system.l2.mem_side::system.mem_ctrls.port      1568192                       # Cumulative packet size per connected master and slave (bytes)
system.membus.pkt_size_system.l2.mem_side::total      1568192                       # Cumulative packet size per connected master and slave (bytes)
system.membus.pkt_size::total                 1568192                       # Cumulative packet size per connected master and slave (bytes)
system.membus.snoops                                0                       # Total snoops (count)
system.membus.snoopTraffic                          0                       # Total snoop traffic (bytes)
system.membus.snoop_fanout::samples             17183                       # Request fanout histogram
system.membus.snoop_fanout::mean                    0                       # Request fanout histogram
system.membus.snoop_fanout::stdev                   0                       # Request fanout histogram
system.membus.snoop_fanout::underflows              0      0.00%      0.00% # Request fanout histogram
system.membus.snoop_fanout::0                   17183    100.00%    100.00% # Request fanout histogram
system.membus.snoop_fanout::1                       0      0.00%    100.00% # Request fanout histogram
system.membus.snoop_fanout::overflows               0      0.00%    100.00% # Request fanout histogram
system.membus.snoop_fanout::min_value               0                       # Request fanout histogram
system.membus.snoop_fanout::max_value               0                       # Request fanout histogram
system.membus.snoop_fanout::total               17183                       # Request fanout histogram
system.membus.reqLayer2.occupancy            67524500                       # Layer occupancy (ticks)
system.membus.reqLayer2.utilization               1.9                       # Layer utilization (%)
system.membus.respLayer1.occupancy           90679250                       # Layer occupancy (ticks)
system.membus.respLayer1.utilization              2.5                       # Layer utilization (%)
system.membus.power_state.pwrStateResidencyTicks::UNDEFINED   3606840000                       # Cumulative time (in ticks) in various power states
system.switch_cpus.dtb.walker.power_state.pwrStateResidencyTicks::UNDEFINED   3606840000                       # Cumulative time (in ticks) in various power states
system.switch_cpus.itb.walker.power_state.pwrStateResidencyTicks::UNDEFINED   3606840000                       # Cumulative time (in ticks) in various power states
system.switch_cpus.power_state.pwrStateResidencyTicks::OFF   3606840000                       # Cumulative time (in ticks) in various power states
system.tol2bus.trans_dist::ReadResp             22575                       # Transaction distribution
system.tol2bus.trans_dist::WritebackDirty        28861                       # Transaction distribution
system.tol2bus.trans_dist::WritebackClean         3632                       # Transaction distribution
system.tol2bus.trans_dist::CleanEvict           24471                       # Transaction distribution
system.tol2bus.trans_dist::ReadExReq            16091                       # Transaction distribution
system.tol2bus.trans_dist::ReadExResp           16091                       # Transaction distribution
system.tol2bus.trans_dist::ReadCleanReq          3696                       # Transaction distribution
system.tol2bus.trans_dist::ReadSharedReq        18879                       # Transaction distribution
system.tol2bus.pkt_count_system.cpu.icache.mem_side::system.l2.cpu_side        11024                       # Packet count per connected master and slave (bytes)
system.tol2bus.pkt_count_system.cpu.dcache.mem_side::system.l2.cpu_side       104846                       # Packet count per connected master and slave (bytes)
system.tol2bus.pkt_count::total                115870                       # Packet count per connected master and slave (bytes)
system.tol2bus.pkt_size_system.cpu.icache.mem_side::system.l2.cpu_side       468992                       # Cumulative packet size per connected master and slave (bytes)
system.tol2bus.pkt_size_system.cpu.dcache.mem_side::system.l2.cpu_side      3616704                       # Cumulative packet size per connected master and slave (bytes)
system.tol2bus.pkt_size::total                4085696                       # Cumulative packet size per connected master and slave (bytes)
system.tol2bus.snoops                           18426                       # Total snoops (count)
system.tol2bus.snoopTraffic                    468480                       # Total snoop traffic (bytes)
system.tol2bus.snoop_fanout::samples            57092                       # Request fanout histogram
system.tol2bus.snoop_fanout::mean            0.037063                       # Request fanout histogram
system.tol2bus.snoop_fanout::stdev           0.188918                       # Request fanout histogram
system.tol2bus.snoop_fanout::underflows             0      0.00%      0.00% # Request fanout histogram
system.tol2bus.snoop_fanout::0                  54976     96.29%     96.29% # Request fanout histogram
system.tol2bus.snoop_fanout::1                   2116      3.71%    100.00% # Request fanout histogram
system.tol2bus.snoop_fanout::2                      0      0.00%    100.00% # Request fanout histogram
system.tol2bus.snoop_fanout::3                      0      0.00%    100.00% # Request fanout histogram
system.tol2bus.snoop_fanout::4                      0      0.00%    100.00% # Request fanout histogram
system.tol2bus.snoop_fanout::overflows              0      0.00%    100.00% # Request fanout histogram
system.tol2bus.snoop_fanout::min_value              0                       # Request fanout histogram
system.tol2bus.snoop_fanout::max_value              1                       # Request fanout histogram
system.tol2bus.snoop_fanout::total              57092                       # Request fanout histogram
system.tol2bus.reqLayer0.occupancy           63773000                       # Layer occupancy (ticks)
system.tol2bus.reqLayer0.utilization              1.8                       # Layer utilization (%)
system.tol2bus.respLayer1.occupancy          52456491                       # Layer occupancy (ticks)
system.tol2bus.respLayer1.utilization             1.5                       # Layer utilization (%)
system.tol2bus.respLayer0.occupancy           5558964                       # Layer occupancy (ticks)
system.tol2bus.respLayer0.utilization             0.2                       # Layer utilization (%)
system.tol2bus.power_state.pwrStateResidencyTicks::UNDEFINED   3606840000                       # Cumulative time (in ticks) in various power states
system.voltage_domain.voltage                       1                       # Voltage in Volts
system.clk_domain.clock                          1000                       # Clock period in ticks
system.l2.demand_hits::.switch_cpus.inst         1990                       # number of demand (read+write) hits
system.l2.demand_hits::.switch_cpus.data        19491                       # number of demand (read+write) hits
system.l2.demand_hits::total                    21481                       # number of demand (read+write) hits
system.l2.overall_hits::.switch_cpus.inst         1990                       # number of overall hits
system.l2.overall_hits::.switch_cpus.data        19491                       # number of overall hits
system.l2.overall_hits::total                   21481                       # number of overall hits
system.l2.demand_misses::.cpu.inst                  2                       # number of demand (read+write) misses
system.l2.demand_misses::.cpu.data                  2                       # number of demand (read+write) misses
system.l2.demand_misses::.switch_cpus.inst         1704                       # number of demand (read+write) misses
system.l2.demand_misses::.switch_cpus.data        15477                       # number of demand (read+write) misses
system.l2.demand_misses::total                  17185                       # number of demand (read+write) misses
system.l2.overall_misses::.cpu.inst                 2                       # number of overall misses
system.l2.overall_misses::.cpu.data                 2                       # number of overall misses
system.l2.overall_misses::.switch_cpus.inst         1704                       # number of overall misses
system.l2.overall_misses::.switch_cpus.data        15477                       # number of overall misses
system.l2.overall_misses::total                 17185                       # number of overall misses
system.l2.demand_miss_latency::.switch_cpus.inst    136812000                       # number of demand (read+write) miss cycles
system.l2.demand_miss_latency::.switch_cpus.data   1208230000                       # number of demand (read+write) miss cycles
system.l2.demand_miss_latency::total       1345042000                       # number of demand (read+write) miss cycles
system.l2.overall_miss_latency::.switch_cpus.inst    136812000                       # number of overall miss cycles
system.l2.overall_miss_latency::.switch_cpus.data   1208230000                       # number of overall miss cycles
system.l2.overall_miss_latency::total      1345042000                       # number of overall miss cycles
system.l2.demand_accesses::.cpu.inst                2                       # number of demand (read+write) accesses
system.l2.demand_accesses::.cpu.data                2                       # number of demand (read+write) accesses
system.l2.demand_accesses::.switch_cpus.inst         3694                       # number of demand (read+write) accesses
system.l2.demand_accesses::.switch_cpus.data        34968                       # number of demand (read+write) accesses
system.l2.demand_accesses::total                38666                       # number of demand (read+write) accesses
system.l2.overall_accesses::.cpu.inst               2                       # number of overall (read+write) accesses
system.l2.overall_accesses::.cpu.data               2                       # number of overall (read+write) accesses
system.l2.overall_accesses::.switch_cpus.inst         3694                       # number of overall (read+write) accesses
system.l2.overall_accesses::.switch_cpus.data        34968                       # number of overall (read+write) accesses
system.l2.overall_accesses::total               38666                       # number of overall (read+write) accesses
system.l2.demand_miss_rate::.cpu.inst               1                       # miss rate for demand accesses
system.l2.demand_miss_rate::.cpu.data               1                       # miss rate for demand accesses
system.l2.demand_miss_rate::.switch_cpus.inst     0.461289                       # miss rate for demand accesses
system.l2.demand_miss_rate::.switch_cpus.data     0.442605                       # miss rate for demand accesses
system.l2.demand_miss_rate::total            0.444447                       # miss rate for demand accesses
system.l2.overall_miss_rate::.cpu.inst              1                       # miss rate for overall accesses
system.l2.overall_miss_rate::.cpu.data              1                       # miss rate for overall accesses
system.l2.overall_miss_rate::.switch_cpus.inst     0.461289                       # miss rate for overall accesses
system.l2.overall_miss_rate::.switch_cpus.data     0.442605                       # miss rate for overall accesses
system.l2.overall_miss_rate::total           0.444447                       # miss rate for overall accesses
system.l2.demand_avg_miss_latency::.switch_cpus.inst 80288.732394                       # average overall miss latency
system.l2.demand_avg_miss_latency::.switch_cpus.data 78066.162693                       # average overall miss latency
system.l2.demand_avg_miss_latency::total 78268.373582                       # average overall miss latency
system.l2.overall_avg_miss_latency::.switch_cpus.inst 80288.732394                       # average overall miss latency
system.l2.overall_avg_miss_latency::.switch_cpus.data 78066.162693                       # average overall miss latency
system.l2.overall_avg_miss_latency::total 78268.373582                       # average overall miss latency
system.l2.blocked_cycles::no_mshrs                  0                       # number of cycles access was blocked
system.l2.blocked_cycles::no_targets                0                       # number of cycles access was blocked
system.l2.blocked::no_mshrs                         0                       # number of cycles access was blocked
system.l2.blocked::no_targets                       0                       # number of cycles access was blocked
system.l2.avg_blocked_cycles::no_mshrs            nan                       # average number of cycles each access was blocked
system.l2.avg_blocked_cycles::no_targets          nan                       # average number of cycles each access was blocked
system.l2.writebacks::.writebacks                7320                       # number of writebacks
system.l2.writebacks::total                      7320                       # number of writebacks
system.l2.demand_mshr_hits::.switch_cpus.inst            1                       # number of demand (read+write) MSHR hits
system.l2.demand_mshr_hits::.switch_cpus.data            1                       # number of demand (read+write) MSHR hits
system.l2.demand_mshr_hits::total                   2                       # number of demand (read+write) MSHR hits
system.l2.overall_mshr_hits::.switch_cpus.inst            1                       # number of overall MSHR hits
system.l2.overall_mshr_hits::.switch_cpus.data            1                       # number of overall MSHR hits
system.l2.overall_mshr_hits::total                  2                       # number of overall MSHR hits
system.l2.demand_mshr_misses::.switch_cpus.inst         1703                       # number of demand (read+write) MSHR misses
system.l2.demand_mshr_misses::.switch_cpus.data        15476                       # number of demand (read+write) MSHR misses
system.l2.demand_mshr_misses::total             17179                       # number of demand (read+write) MSHR misses
system.l2.overall_mshr_misses::.switch_cpus.inst         1703                       # number of overall MSHR misses
system.l2.overall_mshr_misses::.switch_cpus.data        15476                       # number of overall MSHR misses
system.l2.overall_mshr_misses::total            17179                       # number of overall MSHR misses
system.l2.demand_mshr_miss_latency::.switch_cpus.inst    119685500                       # number of demand (read+write) MSHR miss cycles
system.l2.demand_mshr_miss_latency::.switch_cpus.data   1053409500                       # number of demand (read+write) MSHR miss cycles
system.l2.demand_mshr_miss_latency::total   1173095000                       # number of demand (read+write) MSHR miss cycles
system.l2.overall_mshr_miss_latency::.switch_cpus.inst    119685500                       # number of overall MSHR miss cycles
system.l2.overall_mshr_miss_latency::.switch_cpus.data   1053409500                       # number of overall MSHR miss cycles
system.l2.overall_mshr_miss_latency::total   1173095000                       # number of overall MSHR miss cycles
system.l2.demand_mshr_miss_rate::.switch_cpus.inst     0.461018                       # mshr miss rate for demand accesses
system.l2.demand_mshr_miss_rate::.switch_cpus.data     0.442576                       # mshr miss rate for demand accesses
system.l2.demand_mshr_miss_rate::total       0.444292                       # mshr miss rate for demand accesses
system.l2.overall_mshr_miss_rate::.switch_cpus.inst     0.461018                       # mshr miss rate for overall accesses
system.l2.overall_mshr_miss_rate::.switch_cpus.data     0.442576                       # mshr miss rate for overall accesses
system.l2.overall_mshr_miss_rate::total      0.444292                       # mshr miss rate for overall accesses
system.l2.demand_avg_mshr_miss_latency::.switch_cpus.inst 70279.213153                       # average overall mshr miss latency
system.l2.demand_avg_mshr_miss_latency::.switch_cpus.data 68067.297751                       # average overall mshr miss latency
system.l2.demand_avg_mshr_miss_latency::total 68286.570813                       # average overall mshr miss latency
system.l2.overall_avg_mshr_miss_latency::.switch_cpus.inst 70279.213153                       # average overall mshr miss latency
system.l2.overall_avg_mshr_miss_latency::.switch_cpus.data 68067.297751                       # average overall mshr miss latency
system.l2.overall_avg_mshr_miss_latency::total 68286.570813                       # average overall mshr miss latency
system.l2.replacements                          18426                       # number of replacements
system.l2.WritebackDirty_hits::.writebacks        21541                       # number of WritebackDirty hits
system.l2.WritebackDirty_hits::total            21541                       # number of WritebackDirty hits
system.l2.WritebackDirty_accesses::.writebacks        21541                       # number of WritebackDirty accesses(hits+misses)
system.l2.WritebackDirty_accesses::total        21541                       # number of WritebackDirty accesses(hits+misses)
system.l2.WritebackClean_hits::.writebacks         3631                       # number of WritebackClean hits
system.l2.WritebackClean_hits::total             3631                       # number of WritebackClean hits
system.l2.WritebackClean_accesses::.writebacks         3631                       # number of WritebackClean accesses(hits+misses)
system.l2.WritebackClean_accesses::total         3631                       # number of WritebackClean accesses(hits+misses)
system.l2.CleanEvict_mshr_misses::.writebacks          556                       # number of CleanEvict MSHR misses
system.l2.CleanEvict_mshr_misses::total           556                       # number of CleanEvict MSHR misses
system.l2.CleanEvict_mshr_miss_rate::.writebacks          inf                       # mshr miss rate for CleanEvict accesses
system.l2.CleanEvict_mshr_miss_rate::total          inf                       # mshr miss rate for CleanEvict accesses
system.l2.ReadExReq_hits::.switch_cpus.data         8820                       # number of ReadExReq hits
system.l2.ReadExReq_hits::total                  8820                       # number of ReadExReq hits
system.l2.ReadExReq_misses::.cpu.data               2                       # number of ReadExReq misses
system.l2.ReadExReq_misses::.switch_cpus.data         7269                       # number of ReadExReq misses
system.l2.ReadExReq_misses::total                7271                       # number of ReadExReq misses
system.l2.ReadExReq_miss_latency::.switch_cpus.data    562104000                       # number of ReadExReq miss cycles
system.l2.ReadExReq_miss_latency::total     562104000                       # number of ReadExReq miss cycles
system.l2.ReadExReq_accesses::.cpu.data             2                       # number of ReadExReq accesses(hits+misses)
system.l2.ReadExReq_accesses::.switch_cpus.data        16089                       # number of ReadExReq accesses(hits+misses)
system.l2.ReadExReq_accesses::total             16091                       # number of ReadExReq accesses(hits+misses)
system.l2.ReadExReq_miss_rate::.cpu.data            1                       # miss rate for ReadExReq accesses
system.l2.ReadExReq_miss_rate::.switch_cpus.data     0.451799                       # miss rate for ReadExReq accesses
system.l2.ReadExReq_miss_rate::total         0.451868                       # miss rate for ReadExReq accesses
system.l2.ReadExReq_avg_miss_latency::.switch_cpus.data 77328.931077                       # average ReadExReq miss latency
system.l2.ReadExReq_avg_miss_latency::total 77307.660569                       # average ReadExReq miss latency
system.l2.ReadExReq_mshr_misses::.switch_cpus.data         7269                       # number of ReadExReq MSHR misses
system.l2.ReadExReq_mshr_misses::total           7269                       # number of ReadExReq MSHR misses
system.l2.ReadExReq_mshr_miss_latency::.switch_cpus.data    489414000                       # number of ReadExReq MSHR miss cycles
system.l2.ReadExReq_mshr_miss_latency::total    489414000                       # number of ReadExReq MSHR miss cycles
system.l2.ReadExReq_mshr_miss_rate::.switch_cpus.data     0.451799                       # mshr miss rate for ReadExReq accesses
system.l2.ReadExReq_mshr_miss_rate::total     0.451743                       # mshr miss rate for ReadExReq accesses
system.l2.ReadExReq_avg_mshr_miss_latency::.switch_cpus.data 67328.931077                       # average ReadExReq mshr miss latency
system.l2.ReadExReq_avg_mshr_miss_latency::total 67328.931077                       # average ReadExReq mshr miss latency
system.l2.ReadCleanReq_hits::.switch_cpus.inst         1990                       # number of ReadCleanReq hits
system.l2.ReadCleanReq_hits::total               1990                       # number of ReadCleanReq hits
system.l2.ReadCleanReq_misses::.cpu.inst            2                       # number of ReadCleanReq misses
[...]
system.cpu.itb_walker_cache.blocked_cycles::no_mshrs            0                       # number of cycles access was blocked
system.cpu.itb_walker_cache.blocked_cycles::no_targets            0                       # number of cycles access was blocked
system.cpu.itb_walker_cache.blocked::no_mshrs            0                       # number of cycles access was blocked
system.cpu.itb_walker_cache.blocked::no_targets            0                       # number of cycles access was blocked
system.cpu.itb_walker_cache.avg_blocked_cycles::no_mshrs          nan                       # average number of cycles each access was blocked
system.cpu.itb_walker_cache.avg_blocked_cycles::no_targets          nan                       # average number of cycles each access was blocked
system.cpu.itb_walker_cache.replacements            0                       # number of replacements
system.cpu.itb_walker_cache.power_state.pwrStateResidencyTicks::UNDEFINED   3924236500                       # Cumulative time (in ticks) in various power states
system.cpu.itb_walker_cache.tags.tagsinuse            0                       # Cycle average of tags in use
system.cpu.itb_walker_cache.tags.total_refs            0                       # Total number of references to valid blocks.
system.cpu.itb_walker_cache.tags.sampled_refs            0                       # Sample count of references to valid blocks.
system.cpu.itb_walker_cache.tags.avg_refs          nan                       # Average number of references to valid blocks.
system.cpu.itb_walker_cache.tags.warmup_cycle            0                       # Cycle when the warmup percentage was hit.
system.cpu.itb_walker_cache.tags.tag_accesses            0                       # Number of tag accesses
system.cpu.itb_walker_cache.tags.data_accesses            0                       # Number of data accesses
system.cpu.itb_walker_cache.tags.power_state.pwrStateResidencyTicks::UNDEFINED   3924236500                       # Cumulative time (in ticks) in various power states
system.cpu.itb.walker.power_state.pwrStateResidencyTicks::UNDEFINED   3924236500                       # Cumulative time (in ticks) in various power states
system.cpu.dtb_walker_cache.blocked_cycles::no_mshrs            0                       # number of cycles access was blocked
system.cpu.dtb_walker_cache.blocked_cycles::no_targets            0                       # number of cycles access was blocked
system.cpu.dtb_walker_cache.blocked::no_mshrs            0                       # number of cycles access was blocked
system.cpu.dtb_walker_cache.blocked::no_targets            0                       # number of cycles access was blocked
system.cpu.dtb_walker_cache.avg_blocked_cycles::no_mshrs          nan                       # average number of cycles each access was blocked
system.cpu.dtb_walker_cache.avg_blocked_cycles::no_targets          nan                       # average number of cycles each access was blocked
system.cpu.dtb_walker_cache.replacements            0                       # number of replacements
system.cpu.dtb_walker_cache.power_state.pwrStateResidencyTicks::UNDEFINED   3924236500                       # Cumulative time (in ticks) in various power states
system.cpu.dtb_walker_cache.tags.tagsinuse            0                       # Cycle average of tags in use
system.cpu.dtb_walker_cache.tags.total_refs            0                       # Total number of references to valid blocks.
system.cpu.dtb_walker_cache.tags.sampled_refs            0                       # Sample count of references to valid blocks.
system.cpu.dtb_walker_cache.tags.avg_refs          nan                       # Average number of references to valid blocks.
system.cpu.dtb_walker_cache.tags.warmup_cycle            0                       # Cycle when the warmup percentage was hit.
system.cpu.dtb_walker_cache.tags.tag_accesses            0                       # Number of tag accesses
system.cpu.dtb_walker_cache.tags.data_accesses            0                       # Number of data accesses
system.cpu.dtb_walker_cache.tags.power_state.pwrStateResidencyTicks::UNDEFINED   3924236500                       # Cumulative time (in ticks) in various power states
system.cpu.dcache.demand_hits::.cpu.data            5                       # number of demand (read+write) hits
system.cpu.dcache.demand_hits::.switch_cpus.data      4845886                       # number of demand (read+write) hits
system.cpu.dcache.demand_hits::total          4845891                       # number of demand (read+write) hits
system.cpu.dcache.overall_hits::.cpu.data            5                       # number of overall hits
system.cpu.dcache.overall_hits::.switch_cpus.data      4845886                       # number of overall hits
system.cpu.dcache.overall_hits::total         4845891                       # number of overall hits
system.cpu.dcache.demand_misses::.cpu.data            2                       # number of demand (read+write) misses
system.cpu.dcache.demand_misses::.switch_cpus.data        86357                       # number of demand (read+write) misses
system.cpu.dcache.demand_misses::total          86359                       # number of demand (read+write) misses
system.cpu.dcache.overall_misses::.cpu.data            2                       # number of overall misses
system.cpu.dcache.overall_misses::.switch_cpus.data        86357                       # number of overall misses
system.cpu.dcache.overall_misses::total         86359                       # number of overall misses
system.cpu.dcache.demand_miss_latency::.switch_cpus.data   4294003269                       # number of demand (read+write) miss cycles
system.cpu.dcache.demand_miss_latency::total   4294003269                       # number of demand (read+write) miss cycles
system.cpu.dcache.overall_miss_latency::.switch_cpus.data   4294003269                       # number of overall miss cycles
system.cpu.dcache.overall_miss_latency::total   4294003269                       # number of overall miss cycles
system.cpu.dcache.demand_accesses::.cpu.data            7                       # number of demand (read+write) accesses
system.cpu.dcache.demand_accesses::.switch_cpus.data      4932243                       # number of demand (read+write) accesses
system.cpu.dcache.demand_accesses::total      4932250                       # number of demand (read+write) accesses
system.cpu.dcache.overall_accesses::.cpu.data            7                       # number of overall (read+write) accesses
system.cpu.dcache.overall_accesses::.switch_cpus.data      4932243                       # number of overall (read+write) accesses
system.cpu.dcache.overall_accesses::total      4932250                       # number of overall (read+write) accesses
system.cpu.dcache.demand_miss_rate::.cpu.data     0.285714                       # miss rate for demand accesses
system.cpu.dcache.demand_miss_rate::.switch_cpus.data     0.017509                       # miss rate for demand accesses
system.cpu.dcache.demand_miss_rate::total     0.017509                       # miss rate for demand accesses
system.cpu.dcache.overall_miss_rate::.cpu.data     0.285714                       # miss rate for overall accesses
system.cpu.dcache.overall_miss_rate::.switch_cpus.data     0.017509                       # miss rate for overall accesses
system.cpu.dcache.overall_miss_rate::total     0.017509                       # miss rate for overall accesses
system.cpu.dcache.demand_avg_miss_latency::.switch_cpus.data 49723.858738                       # average overall miss latency
system.cpu.dcache.demand_avg_miss_latency::total 49722.707176                       # average overall miss latency
system.cpu.dcache.overall_avg_miss_latency::.switch_cpus.data 49723.858738                       # average overall miss latency
system.cpu.dcache.overall_avg_miss_latency::total 49722.707176                       # average overall miss latency
system.cpu.dcache.blocked_cycles::no_mshrs       157810                       # number of cycles access was blocked
system.cpu.dcache.blocked_cycles::no_targets          827                       # number of cycles access was blocked
system.cpu.dcache.blocked::no_mshrs              6631                       # number of cycles access was blocked
system.cpu.dcache.blocked::no_targets              11                       # number of cycles access was blocked
system.cpu.dcache.avg_blocked_cycles::no_mshrs    23.798824                       # average number of cycles each access was blocked
system.cpu.dcache.avg_blocked_cycles::no_targets    75.181818                       # average number of cycles each access was blocked
system.cpu.dcache.writebacks::.writebacks        24236                       # number of writebacks
system.cpu.dcache.writebacks::total             24236                       # number of writebacks
system.cpu.dcache.demand_mshr_hits::.switch_cpus.data        47740                       # number of demand (read+write) MSHR hits
system.cpu.dcache.demand_mshr_hits::total        47740                       # number of demand (read+write) MSHR hits
system.cpu.dcache.overall_mshr_hits::.switch_cpus.data        47740                       # number of overall MSHR hits
system.cpu.dcache.overall_mshr_hits::total        47740                       # number of overall MSHR hits
system.cpu.dcache.demand_mshr_misses::.switch_cpus.data        38617                       # number of demand (read+write) MSHR misses
system.cpu.dcache.demand_mshr_misses::total        38617                       # number of demand (read+write) MSHR misses
system.cpu.dcache.overall_mshr_misses::.switch_cpus.data        38617                       # number of overall MSHR misses
system.cpu.dcache.overall_mshr_misses::total        38617                       # number of overall MSHR misses
system.cpu.dcache.demand_mshr_miss_latency::.switch_cpus.data   1634529270                       # number of demand (read+write) MSHR miss cycles
system.cpu.dcache.demand_mshr_miss_latency::total   1634529270                       # number of demand (read+write) MSHR miss cycles
system.cpu.dcache.overall_mshr_miss_latency::.switch_cpus.data   1634529270                       # number of overall MSHR miss cycles
system.cpu.dcache.overall_mshr_miss_latency::total   1634529270                       # number of overall MSHR miss cycles
system.cpu.dcache.demand_mshr_miss_rate::.switch_cpus.data     0.007830                       # mshr miss rate for demand accesses
system.cpu.dcache.demand_mshr_miss_rate::total     0.007829                       # mshr miss rate for demand accesses
system.cpu.dcache.overall_mshr_miss_rate::.switch_cpus.data     0.007830                       # mshr miss rate for overall accesses
system.cpu.dcache.overall_mshr_miss_rate::total     0.007829                       # mshr miss rate for overall accesses
system.cpu.dcache.demand_avg_mshr_miss_latency::.switch_cpus.data 42326.676593                       # average overall mshr miss latency
system.cpu.dcache.demand_avg_mshr_miss_latency::total 42326.676593                       # average overall mshr miss latency
system.cpu.dcache.overall_avg_mshr_miss_latency::.switch_cpus.data 42326.676593                       # average overall mshr miss latency
system.cpu.dcache.overall_avg_mshr_miss_latency::total 42326.676593                       # average overall mshr miss latency
system.cpu.dcache.replacements                  38555                       # number of replacements
system.cpu.dcache.ReadReq_hits::.switch_cpus.data      2774062                       # number of ReadReq hits
system.cpu.dcache.ReadReq_hits::total         2774062                       # number of ReadReq hits
system.cpu.dcache.ReadReq_misses::.switch_cpus.data        68375                       # number of ReadReq misses
system.cpu.dcache.ReadReq_misses::total         68375                       # number of ReadReq misses
system.cpu.dcache.ReadReq_miss_latency::.switch_cpus.data   3487233000                       # number of ReadReq miss cycles
system.cpu.dcache.ReadReq_miss_latency::total   3487233000                       # number of ReadReq miss cycles
system.cpu.dcache.ReadReq_accesses::.switch_cpus.data      2842437                       # number of ReadReq accesses(hits+misses)
system.cpu.dcache.ReadReq_accesses::total      2842437                       # number of ReadReq accesses(hits+misses)
system.cpu.dcache.ReadReq_miss_rate::.switch_cpus.data     0.024055                       # miss rate for ReadReq accesses
system.cpu.dcache.ReadReq_miss_rate::total     0.024055                       # miss rate for ReadReq accesses
system.cpu.dcache.ReadReq_avg_miss_latency::.switch_cpus.data 51001.579525                       # average ReadReq miss latency
system.cpu.dcache.ReadReq_avg_miss_latency::total 51001.579525                       # average ReadReq miss latency
system.cpu.dcache.ReadReq_mshr_hits::.switch_cpus.data        47709                       # number of ReadReq MSHR hits
system.cpu.dcache.ReadReq_mshr_hits::total        47709                       # number of ReadReq MSHR hits
system.cpu.dcache.ReadReq_mshr_misses::.switch_cpus.data        20666                       # number of ReadReq MSHR misses
system.cpu.dcache.ReadReq_mshr_misses::total        20666                       # number of ReadReq MSHR misses
system.cpu.dcache.ReadReq_mshr_miss_latency::.switch_cpus.data    846238000                       # number of ReadReq MSHR miss cycles
system.cpu.dcache.ReadReq_mshr_miss_latency::total    846238000                       # number of ReadReq MSHR miss cycles
system.cpu.dcache.ReadReq_mshr_miss_rate::.switch_cpus.data     0.007271                       # mshr miss rate for ReadReq accesses
system.cpu.dcache.ReadReq_mshr_miss_rate::total     0.007271                       # mshr miss rate for ReadReq accesses
system.cpu.dcache.ReadReq_avg_mshr_miss_latency::.switch_cpus.data 40948.320914                       # average ReadReq mshr miss latency
system.cpu.dcache.ReadReq_avg_mshr_miss_latency::total 40948.320914                       # average ReadReq mshr miss latency
system.cpu.dcache.WriteReq_hits::.cpu.data            5                       # number of WriteReq hits
system.cpu.dcache.WriteReq_hits::.switch_cpus.data      2071824                       # number of WriteReq hits
system.cpu.dcache.WriteReq_hits::total        2071829                       # number of WriteReq hits
system.cpu.dcache.WriteReq_misses::.cpu.data            2                       # number of WriteReq misses
system.cpu.dcache.WriteReq_misses::.switch_cpus.data        17982                       # number of WriteReq misses
system.cpu.dcache.WriteReq_misses::total        17984                       # number of WriteReq misses
system.cpu.dcache.WriteReq_miss_latency::.switch_cpus.data    806770269                       # number of WriteReq miss cycles
system.cpu.dcache.WriteReq_miss_latency::total    806770269                       # number of WriteReq miss cycles
system.cpu.dcache.WriteReq_accesses::.cpu.data            7                       # number of WriteReq accesses(hits+misses)
system.cpu.dcache.WriteReq_accesses::.switch_cpus.data      2089806                       # number of WriteReq accesses(hits+misses)
system.cpu.dcache.WriteReq_accesses::total      2089813                       # number of WriteReq accesses(hits+misses)
system.cpu.dcache.WriteReq_miss_rate::.cpu.data     0.285714                       # miss rate for WriteReq accesses
system.cpu.dcache.WriteReq_miss_rate::.switch_cpus.data     0.008605                       # miss rate for WriteReq accesses
system.cpu.dcache.WriteReq_miss_rate::total     0.008606                       # miss rate for WriteReq accesses
system.cpu.dcache.WriteReq_avg_miss_latency::.switch_cpus.data 44865.435936                       # average WriteReq miss latency
system.cpu.dcache.WriteReq_avg_miss_latency::total 44860.446452                       # average WriteReq miss latency
system.cpu.dcache.WriteReq_mshr_hits::.switch_cpus.data           31                       # number of WriteReq MSHR hits
system.cpu.dcache.WriteReq_mshr_hits::total           31                       # number of WriteReq MSHR hits
system.cpu.dcache.WriteReq_mshr_misses::.switch_cpus.data        17951                       # number of WriteReq MSHR misses
system.cpu.dcache.WriteReq_mshr_misses::total        17951                       # number of WriteReq MSHR misses
system.cpu.dcache.WriteReq_mshr_miss_latency::.switch_cpus.data    788291270                       # number of WriteReq MSHR miss cycles
system.cpu.dcache.WriteReq_mshr_miss_latency::total    788291270                       # number of WriteReq MSHR miss cycles
system.cpu.dcache.WriteReq_mshr_miss_rate::.switch_cpus.data     0.008590                       # mshr miss rate for WriteReq accesses
system.cpu.dcache.WriteReq_mshr_miss_rate::total     0.008590                       # mshr miss rate for WriteReq accesses
system.cpu.dcache.WriteReq_avg_mshr_miss_latency::.switch_cpus.data 43913.501755                       # average WriteReq mshr miss latency
system.cpu.dcache.WriteReq_avg_mshr_miss_latency::total 43913.501755                       # average WriteReq mshr miss latency
system.cpu.dcache.power_state.pwrStateResidencyTicks::UNDEFINED   3924236500                       # Cumulative time (in ticks) in various power states
system.cpu.dcache.tags.tagsinuse            63.956949                       # Cycle average of tags in use
system.cpu.dcache.tags.total_refs             4884510                       # Total number of references to valid blocks.
system.cpu.dcache.tags.sampled_refs             38619                       # Sample count of references to valid blocks.
system.cpu.dcache.tags.avg_refs            126.479453                       # Average number of references to valid blocks.
system.cpu.dcache.tags.warmup_cycle              1500                       # Cycle when the warmup percentage was hit.
system.cpu.dcache.tags.occ_blocks::.cpu.data     0.003595                       # Average occupied blocks per requestor
system.cpu.dcache.tags.occ_blocks::.switch_cpus.data    63.953354                       # Average occupied blocks per requestor
system.cpu.dcache.tags.occ_percent::.cpu.data     0.000056                       # Average percentage of cache occupancy
system.cpu.dcache.tags.occ_percent::.switch_cpus.data     0.999271                       # Average percentage of cache occupancy
system.cpu.dcache.tags.occ_percent::total     0.999327                       # Average percentage of cache occupancy
system.cpu.dcache.tags.occ_task_id_blocks::1024           64                       # Occupied blocks per task id
system.cpu.dcache.tags.age_task_id_blocks_1024::0           25                       # Occupied blocks per task id
system.cpu.dcache.tags.age_task_id_blocks_1024::1           39                       # Occupied blocks per task id
system.cpu.dcache.tags.occ_task_id_percent::1024            1                       # Percentage of cache occupancy per task id
system.cpu.dcache.tags.tag_accesses           9903119                       # Number of tag accesses
system.cpu.dcache.tags.data_accesses          9903119                       # Number of data accesses
system.cpu.dcache.tags.power_state.pwrStateResidencyTicks::UNDEFINED   3924236500                       # Cumulative time (in ticks) in various power states
system.cpu.power_state.numTransitions               1                       # Number of power state transitions
system.cpu.power_state.pwrStateResidencyTicks::ON        10500                       # Cumulative time (in ticks) in various power states
system.cpu.power_state.pwrStateResidencyTicks::OFF   3924226000                       # Cumulative time (in ticks) in various power states

---------- End Simulation Statistics   ----------
