
---------- Begin Simulation Statistics ----------
final_tick                                33199587000                       # Number of ticks from beginning of simulation (restored from checkpoints and never reset)
host_inst_rate                                  65292                       # Simulator instruction rate (inst/s)
host_mem_usage                                1051172                       # Number of bytes of host memory used
host_op_rate                                   129703                       # Simulator op (including micro ops) rate (op/s)
host_seconds                                   153.16                       # Real time elapsed on the host
host_tick_rate                              216764652                       # Simulator tick rate (ticks/s)
sim_freq                                 1000000000000                       # Frequency of simulated ticks
sim_insts                                    10000011                       # Number of instructions simulated
sim_ops                                      19865311                       # Number of ops (including micro ops) simulated
sim_seconds                                  0.033200                       # Number of seconds simulated
sim_ticks                                 33199587000                       # Number of ticks simulated
system.cpu.Branches                                 1                       # Number of branches fetched
system.cpu.committedInsts                          10                       # Number of instructions committed
system.cpu.committedOps                            21                       # Number of ops (including micro ops) committed
system.cpu.dtb.rdAccesses                           0                       # TLB accesses on read requests
system.cpu.dtb.rdMisses                             0                       # TLB misses on read requests
system.cpu.dtb.wrAccesses                           7                       # TLB accesses on write requests
system.cpu.dtb.wrMisses                             1                       # TLB misses on write requests
system.cpu.idle_fraction                            0                       # Percentage of idle cycles
system.cpu.itb.rdAccesses                           0                       # TLB accesses on read requests
system.cpu.itb.rdMisses                             0                       # TLB misses on read requests
system.cpu.itb.wrAccesses                          10                       # TLB accesses on write requests
system.cpu.itb.wrMisses                             0                       # TLB misses on write requests
system.cpu.not_idle_fraction                        1                       # Percentage of non-idle cycles
system.cpu.numCycles                               21                       # number of cpu cycles simulated
system.cpu.numWorkItemsCompleted                    0                       # number of work items this cpu completed
system.cpu.numWorkItemsStarted                      0                       # number of work items this cpu started
system.cpu.num_busy_cycles                         21                       # Number of busy cycles
system.cpu.num_cc_register_writes                   2                       # number of times the CC registers were written
system.cpu.num_conditional_control_insts            0                       # number of instructions that are conditional controls
system.cpu.num_fp_alu_accesses                      0                       # Number of float alu accesses
system.cpu.num_fp_insts                             0                       # number of float instructions
system.cpu.num_fp_register_reads                    0                       # number of times the floating registers were read
system.cpu.num_fp_register_writes                   0                       # number of times the floating registers were written
system.cpu.num_func_calls                           1                       # number of times a function call or return occured
system.cpu.num_idle_cycles                          0                       # Number of idle cycles
system.cpu.num_int_alu_accesses                    21                       # Number of integer alu accesses
system.cpu.num_int_insts                           21                       # number of integer instructions
system.cpu.num_int_register_reads                  47                       # number of times the integer registers were read
system.cpu.num_int_register_writes                 13                       # number of times the integer registers were written
system.cpu.num_load_insts                           0                       # Number of load instructions
system.cpu.num_mem_refs                             7                       # number of memory refs
system.cpu.num_store_insts                          7                       # Number of store instructions
system.cpu.num_vec_alu_accesses                     0                       # Number of vector alu accesses
system.cpu.num_vec_insts                            0                       # number of vector instructions
system.cpu.num_vec_register_reads                   0                       # number of times the vector registers were read
system.cpu.num_vec_register_writes                  0                       # number of times the vector registers were written
system.cpu.op_class::No_OpClass                     0      0.00%      0.00% # Class of executed instruction
system.cpu.op_class::IntAlu                        14     66.67%     66.67% # Class of executed instruction
system.cpu.op_class::IntMult                        0      0.00%     66.67% # Class of executed instruction
system.cpu.op_class::IntDiv                         0      0.00%     66.67% # Class of executed instruction
system.cpu.op_class::FloatAdd                       0      0.00%     66.67% # Class of executed instruction
system.cpu.op_class::FloatCmp                       0      0.00%     66.67% # Class of executed instruction
system.cpu.op_class::FloatCvt                       0      0.00%     66.67% # Class of executed instruction
system.cpu.op_class::FloatMult                      0      0.00%     66.67% # Class of executed instruction
system.cpu.op_class::FloatMultAcc                   0      0.00%     66.67% # Class of executed instruction
system.cpu.op_class::FloatDiv                       0      0.00%     66.67% # Class of executed instruction
system.cpu.op_class::FloatMisc                      0      0.00%     66.67% # Class of executed instruction
system.cpu.op_class::FloatSqrt                      0      0.00%     66.67% # Class of executed instruction
system.cpu.op_class::SimdAdd                        0      0.00%     66.67% # Class of executed instruction
system.cpu.op_class::SimdAddAcc                     0      0.00%     66.67% # Class of executed instruction
system.cpu.op_class::SimdAlu                        0      0.00%     66.67% # Class of executed instruction
system.cpu.op_class::SimdCmp                        0      0.00%     66.67% # Class of executed instruction
system.cpu.op_class::SimdCvt                        0      0.00%     66.67% # Class of executed instruction
system.cpu.op_class::SimdMisc                       0      0.00%     66.67% # Class of executed instruction
system.cpu.op_class::SimdMult                       0      0.00%     66.67% # Class of executed instruction
system.cpu.op_class::SimdMultAcc                    0      0.00%     66.67% # Class of executed instruction
system.cpu.op_class::SimdShift                      0      0.00%     66.67% # Class of executed instruction
system.cpu.op_class::SimdShiftAcc                   0      0.00%     66.67% # Class of executed instruction
system.cpu.op_class::SimdDiv                        0      0.00%     66.67% # Class of executed instruction
system.cpu.op_class::SimdSqrt                       0      0.00%     66.67% # Class of executed instruction
system.cpu.op_class::SimdFloatAdd                   0      0.00%     66.67% # Class of executed instruction
system.cpu.op_class::SimdFloatAlu                   0      0.00%     66.67% # Class of executed instruction
system.cpu.op_class::SimdFloatCmp                   0      0.00%     66.67% # Class of executed instruction
system.cpu.op_class::SimdFloatCvt                   0      0.00%     66.67% # Class of executed instruction
system.cpu.op_class::SimdFloatDiv                   0      0.00%     66.67% # Class of executed instruction
system.cpu.op_class::SimdFloatMisc                  0      0.00%     66.67% # Class of executed instruction
system.cpu.op_class::SimdFloatMult                  0      0.00%     66.67% # Class of executed instruction
system.cpu.op_class::SimdFloatMultAcc               0      0.00%     66.67% # Class of executed instruction
system.cpu.op_class::SimdFloatSqrt                  0      0.00%     66.67% # Class of executed instruction
system.cpu.op_class::SimdReduceAdd                  0      0.00%     66.67% # Class of executed instruction
system.cpu.op_class::SimdReduceAlu                  0      0.00%     66.67% # Class of executed instruction
system.cpu.op_class::SimdReduceCmp                  0      0.00%     66.67% # Class of executed instruction
system.cpu.op_class::SimdFloatReduceAdd             0      0.00%     66.67% # Class of executed instruction
system.cpu.op_class::SimdFloatReduceCmp             0      0.00%     66.67% # Class of executed instruction
system.cpu.op_class::SimdAes                        0      0.00%     66.67% # Class of executed instruction
system.cpu.op_class::SimdAesMix                     0      0.00%     66.67% # Class of executed instruction
system.cpu.op_class::SimdSha1Hash                   0      0.00%     66.67% # Class of executed instruction
system.cpu.op_class::SimdSha1Hash2                  0      0.00%     66.67% # Class of executed instruction
system.cpu.op_class::SimdSha256Hash                 0      0.00%     66.67% # Class of executed instruction
system.cpu.op_class::SimdSha256Hash2                0      0.00%     66.67% # Class of executed instruction
system.cpu.op_class::SimdShaSigma2                  0      0.00%     66.67% # Class of executed instruction
system.cpu.op_class::SimdShaSigma3                  0      0.00%     66.67% # Class of executed instruction
system.cpu.op_class::SimdPredAlu                    0      0.00%     66.67% # Class of executed instruction
system.cpu.op_class::MemRead                        0      0.00%     66.67% # Class of executed instruction
system.cpu.op_class::MemWrite                       7     33.33%    100.00% # Class of executed instruction
system.cpu.op_class::FloatMemRead                   0      0.00%    100.00% # Class of executed instruction
system.cpu.op_class::FloatMemWrite                  0      0.00%    100.00% # Class of executed instruction
system.cpu.op_class::IprAccess                      0      0.00%    100.00% # Class of executed instruction
system.cpu.op_class::InstPrefetch                   0      0.00%    100.00% # Class of executed instruction
system.cpu.op_class::total                         21                       # Class of executed instruction
system.cpu.workload.numSyscalls                    40                       # Number of system calls
system.membus.snoop_filter.hit_multi_requests            0                       # Number of requests hitting in the snoop filter with multiple (>1) holders of the requested data.
system.membus.snoop_filter.hit_multi_snoops            0                       # Number of snoops hitting in the snoop filter with multiple (>1) holders of the requested data.
system.membus.snoop_filter.hit_single_requests       383407                       # Number of requests hitting in the snoop filter with a single holder of the requested data.
system.membus.snoop_filter.hit_single_snoops            0                       # Number of snoops hitting in the snoop filter with a single holder of the requested data.
system.membus.snoop_filter.tot_requests        767136                       # Total number of requests made to the snoop filter.
system.membus.snoop_filter.tot_snoops               0                       # Total number of snoops made to the snoop filter.
system.switch_cpus.branchPred.BTBCorrect            0                       # Number of correct BTB predictions (this stat may not work properly.
system.switch_cpus.branchPred.BTBHitPct           nan                       # BTB Hit Percentage
system.switch_cpus.branchPred.BTBHits               0                       # Number of BTB hits
system.switch_cpus.branchPred.BTBLookups            0                       # Number of BTB lookups
system.switch_cpus.branchPred.RASInCorrect            8                       # Number of incorrect RAS predictions.
system.switch_cpus.branchPred.condIncorrect        11133                       # Number of conditional branches incorrect
system.switch_cpus.branchPred.condPredicted      1853695                       # Number of conditional branches predicted
system.switch_cpus.branchPred.indirectHits      1772061                       # Number of indirect target hits.
system.switch_cpus.branchPred.indirectLookups      1793939                       # Number of indirect predictor lookups.
system.switch_cpus.branchPred.indirectMisses        21878                       # Number of indirect misses.
system.switch_cpus.branchPred.lookups         1869889                       # Number of BP lookups
system.switch_cpus.branchPred.usedRAS            7972                       # Number of times the RAS was used to get a target.
system.switch_cpus.branchPredindirectMispredicted         5029                       # Number of mispredicted indirect branches.
system.switch_cpus.cc_regfile_reads           8922235                       # number of cc regfile reads
system.switch_cpus.cc_regfile_writes         10515920                       # number of cc regfile writes
system.switch_cpus.commit.amos                      0                       # Number of atomic instructions committed
system.switch_cpus.commit.branchMispredicts        11605                       # The number of times a branch was mispredicted
system.switch_cpus.commit.branches            1674642                       # Number of branches committed
system.switch_cpus.commit.bw_lim_events       1171373                       # number cycles where commit BW limit reached
system.switch_cpus.commit.commitNonSpecStalls          103                       # The number of times commit has been forced to stall to communicate backwards
system.switch_cpus.commit.commitSquashedInsts      1522778                       # The number of squashed insts skipped by commit
system.switch_cpus.commit.committedInsts     10000001                       # Number of instructions committed
system.switch_cpus.commit.committedOps       19865290                       # Number of ops (including micro ops) committed
system.switch_cpus.commit.committed_per_cycle::samples     66088618                       # Number of insts commited each cycle
system.switch_cpus.commit.committed_per_cycle::mean     0.300586                       # Number of insts commited each cycle
system.switch_cpus.commit.committed_per_cycle::stdev     1.256907                       # Number of insts commited each cycle
system.switch_cpus.commit.committed_per_cycle::underflows            0      0.00%      0.00% # Number of insts commited each cycle
system.switch_cpus.commit.committed_per_cycle::0     60925099     92.19%     92.19% # Number of insts commited each cycle
system.switch_cpus.commit.committed_per_cycle::1      1369746      2.07%     94.26% # Number of insts commited each cycle
system.switch_cpus.commit.committed_per_cycle::2       381458      0.58%     94.84% # Number of insts commited each cycle
system.switch_cpus.commit.committed_per_cycle::3      1015376      1.54%     96.37% # Number of insts commited each cycle
system.switch_cpus.commit.committed_per_cycle::4       832485      1.26%     97.63% # Number of insts commited each cycle
system.switch_cpus.commit.committed_per_cycle::5       377137      0.57%     98.20% # Number of insts commited each cycle
system.switch_cpus.commit.committed_per_cycle::6        11717      0.02%     98.22% # Number of insts commited each cycle
system.switch_cpus.commit.committed_per_cycle::7         4227      0.01%     98.23% # Number of insts commited each cycle
system.switch_cpus.commit.committed_per_cycle::8      1171373      1.77%    100.00% # Number of insts commited each cycle
system.switch_cpus.commit.committed_per_cycle::overflows            0      0.00%    100.00% # Number of insts commited each cycle
system.switch_cpus.commit.committed_per_cycle::min_value            0                       # Number of insts commited each cycle
system.switch_cpus.commit.committed_per_cycle::max_value            8                       # Number of insts commited each cycle
system.switch_cpus.commit.committed_per_cycle::total     66088618                       # Number of insts commited each cycle
system.switch_cpus.commit.fp_insts              45511                       # Number of committed floating point instructions.
system.switch_cpus.commit.function_calls         4591                       # Number of function calls committed.
system.switch_cpus.commit.int_insts          19859856                       # Number of committed integer instructions.
system.switch_cpus.commit.loads               3218625                       # Number of loads committed
system.switch_cpus.commit.membars                   0                       # Number of memory barriers committed
system.switch_cpus.commit.op_class_0::No_OpClass         5227      0.03%      0.03% # Class of committed instruction
system.switch_cpus.commit.op_class_0::IntAlu     14954083     75.28%     75.30% # Class of committed instruction
system.switch_cpus.commit.op_class_0::IntMult        22636      0.11%     75.42% # Class of committed instruction
system.switch_cpus.commit.op_class_0::IntDiv         1744      0.01%     75.43% # Class of committed instruction
system.switch_cpus.commit.op_class_0::FloatAdd           64      0.00%     75.43% # Class of committed instruction
system.switch_cpus.commit.op_class_0::FloatCmp            0      0.00%     75.43% # Class of committed instruction
system.switch_cpus.commit.op_class_0::FloatCvt          112      0.00%     75.43% # Class of committed instruction
system.switch_cpus.commit.op_class_0::FloatMult            0      0.00%     75.43% # Class of committed instruction
system.switch_cpus.commit.op_class_0::FloatMultAcc            0      0.00%     75.43% # Class of committed instruction
system.switch_cpus.commit.op_class_0::FloatDiv            0      0.00%     75.43% # Class of committed instruction
system.switch_cpus.commit.op_class_0::FloatMisc            0      0.00%     75.43% # Class of committed instruction
system.switch_cpus.commit.op_class_0::FloatSqrt            0      0.00%     75.43% # Class of committed instruction
system.switch_cpus.commit.op_class_0::SimdAdd           12      0.00%     75.43% # Class of committed instruction
system.switch_cpus.commit.op_class_0::SimdAddAcc            0      0.00%     75.43% # Class of committed instruction
system.switch_cpus.commit.op_class_0::SimdAlu           25      0.00%     75.43% # Class of committed instruction
system.switch_cpus.commit.op_class_0::SimdCmp            0      0.00%     75.43% # Class of committed instruction
system.switch_cpus.commit.op_class_0::SimdCvt           58      0.00%     75.43% # Class of committed instruction
system.switch_cpus.commit.op_class_0::SimdMisc           67      0.00%     75.43% # Class of committed instruction
system.switch_cpus.commit.op_class_0::SimdMult            0      0.00%     75.43% # Class of committed instruction
system.switch_cpus.commit.op_class_0::SimdMultAcc            0      0.00%     75.43% # Class of committed instruction
system.switch_cpus.commit.op_class_0::SimdShift            4      0.00%     75.43% # Class of committed instruction
system.switch_cpus.commit.op_class_0::SimdShiftAcc            0      0.00%     75.43% # Class of committed instruction
system.switch_cpus.commit.op_class_0::SimdDiv            0      0.00%     75.43% # Class of committed instruction
system.switch_cpus.commit.op_class_0::SimdSqrt            0      0.00%     75.43% # Class of committed instruction
system.switch_cpus.commit.op_class_0::SimdFloatAdd            0      0.00%     75.43% # Class of committed instruction
system.switch_cpus.commit.op_class_0::SimdFloatAlu            0      0.00%     75.43% # Class of committed instruction
system.switch_cpus.commit.op_class_0::SimdFloatCmp            0      0.00%     75.43% # Class of committed instruction
system.switch_cpus.commit.op_class_0::SimdFloatCvt            0      0.00%     75.43% # Class of committed instruction
system.switch_cpus.commit.op_class_0::SimdFloatDiv            0      0.00%     75.43% # Class of committed instruction
system.switch_cpus.commit.op_class_0::SimdFloatMisc            0      0.00%     75.43% # Class of committed instruction
system.switch_cpus.commit.op_class_0::SimdFloatMult            0      0.00%     75.43% # Class of committed instruction
system.switch_cpus.commit.op_class_0::SimdFloatMultAcc            0      0.00%     75.43% # Class of committed instruction
system.switch_cpus.commit.op_class_0::SimdFloatSqrt            0      0.00%     75.43% # Class of committed instruction
system.switch_cpus.commit.op_class_0::SimdReduceAdd            0      0.00%     75.43% # Class of committed instruction
system.switch_cpus.commit.op_class_0::SimdReduceAlu            0      0.00%     75.43% # Class of committed instruction
system.switch_cpus.commit.op_class_0::SimdReduceCmp            0      0.00%     75.43% # Class of committed instruction
system.switch_cpus.commit.op_class_0::SimdFloatReduceAdd            0      0.00%     75.43% # Class of committed instruction
system.switch_cpus.commit.op_class_0::SimdFloatReduceCmp            0      0.00%     75.43% # Class of committed instruction
system.switch_cpus.commit.op_class_0::SimdAes            0      0.00%     75.43% # Class of committed instruction
system.switch_cpus.commit.op_class_0::SimdAesMix            0      0.00%     75.43% # Class of committed instruction
system.switch_cpus.commit.op_class_0::SimdSha1Hash            0      0.00%     75.43% # Class of committed instruction
system.switch_cpus.commit.op_class_0::SimdSha1Hash2            0      0.00%     75.43% # Class of committed instruction
system.switch_cpus.commit.op_class_0::SimdSha256Hash            0      0.00%     75.43% # Class of committed instruction
system.switch_cpus.commit.op_class_0::SimdSha256Hash2            0      0.00%     75.43% # Class of committed instruction
system.switch_cpus.commit.op_class_0::SimdShaSigma2            0      0.00%     75.43% # Class of committed instruction
system.switch_cpus.commit.op_class_0::SimdShaSigma3            0      0.00%     75.43% # Class of committed instruction
system.switch_cpus.commit.op_class_0::SimdPredAlu            0      0.00%     75.43% # Class of committed instruction
system.switch_cpus.commit.op_class_0::MemRead      3218353     16.20%     91.63% # Class of committed instruction
system.switch_cpus.commit.op_class_0::MemWrite      1617751      8.14%     99.77% # Class of committed instruction
system.switch_cpus.commit.op_class_0::FloatMemRead          272      0.00%     99.77% # Class of committed instruction
system.switch_cpus.commit.op_class_0::FloatMemWrite        44882      0.23%    100.00% # Class of committed instruction
system.switch_cpus.commit.op_class_0::IprAccess            0      0.00%    100.00% # Class of committed instruction
system.switch_cpus.commit.op_class_0::InstPrefetch            0      0.00%    100.00% # Class of committed instruction
system.switch_cpus.commit.op_class_0::total     19865290                       # Class of committed instruction
system.switch_cpus.commit.refs                4881258                       # Number of memory references committed
system.switch_cpus.commit.swp_count                 0                       # Number of s/w prefetches committed
system.switch_cpus.commit.vec_insts                 0                       # Number of committed Vector instructions.
system.switch_cpus.committedInsts            10000001                       # Number of Instructions Simulated
system.switch_cpus.committedOps              19865290                       # Number of Ops (including micro ops) Simulated
system.switch_cpus.cpi                       6.639915                       # CPI: Cycles Per Instruction
system.switch_cpus.cpi_total                 6.639915                       # CPI: Total CPI of All Threads
system.switch_cpus.decode.BlockedCycles      62604653                       # Number of cycles decode is blocked
system.switch_cpus.decode.DecodedInsts       21560442                       # Number of instructions handled by decode
system.switch_cpus.decode.IdleCycles           780674                       # Number of cycles decode is idle
system.switch_cpus.decode.RunCycles           1880181                       # Number of cycles decode is running
system.switch_cpus.decode.SquashCycles          17501                       # Number of cycles decode is squashing
system.switch_cpus.decode.UnblockCycles       1008453                       # Number of cycles decode is unblocking
system.switch_cpus.dtb.rdAccesses             3434234                       # TLB accesses on read requests
system.switch_cpus.dtb.rdMisses                  1785                       # TLB misses on read requests
system.switch_cpus.dtb.wrAccesses             1758820                       # TLB accesses on write requests
system.switch_cpus.dtb.wrMisses                 92126                       # TLB misses on write requests
system.switch_cpus.fetch.Branches             1869889                       # Number of branches that fetch encountered
system.switch_cpus.fetch.CacheLines           1008438                       # Number of cache lines fetched
system.switch_cpus.fetch.Cycles              65171567                       # Number of cycles fetch has run and was not squashing or blocked
system.switch_cpus.fetch.IcacheSquashes          3922                       # Number of outstanding Icache misses that were squashed
system.switch_cpus.fetch.IcacheWaitRetryStallCycles           52                       # Number of stall cycles due to full MSHR
system.switch_cpus.fetch.Insts               11074192                       # Number of instructions fetch has processed
system.switch_cpus.fetch.MiscStallCycles          499                       # Number of cycles fetch has spent waiting on interrupts, or bad addresses, or out of MSHRs
system.switch_cpus.fetch.PendingQuiesceStallCycles            6                       # Number of stall cycles due to pending quiesce instructions
system.switch_cpus.fetch.PendingTrapStallCycles         3184                       # Number of stall cycles due to pending traps
system.switch_cpus.fetch.SquashCycles           35002                       # Number of cycles fetch has spent squashing
system.switch_cpus.fetch.branchRate          0.028161                       # Number of branch fetches per cycle
system.switch_cpus.fetch.icacheStallCycles      1098655                       # Number of cycles fetch is stalled on an Icache miss
system.switch_cpus.fetch.predictedBranches      1780033                       # Number of branches that fetch has predicted taken
system.switch_cpus.fetch.rate                0.166782                       # Number of inst fetches per cycle
system.switch_cpus.fetch.rateDist::samples     66291464                       # Number of instructions fetched each cycle (Total)
system.switch_cpus.fetch.rateDist::mean      0.330838                       # Number of instructions fetched each cycle (Total)
system.switch_cpus.fetch.rateDist::stdev     1.429392                       # Number of instructions fetched each cycle (Total)
system.switch_cpus.fetch.rateDist::underflows            0      0.00%      0.00% # Number of instructions fetched each cycle (Total)
system.switch_cpus.fetch.rateDist::0         62193148     93.82%     93.82% # Number of instructions fetched each cycle (Total)
system.switch_cpus.fetch.rateDist::1           401147      0.61%     94.42% # Number of instructions fetched each cycle (Total)
system.switch_cpus.fetch.rateDist::2            20966      0.03%     94.45% # Number of instructions fetched each cycle (Total)
system.switch_cpus.fetch.rateDist::3           469392      0.71%     95.16% # Number of instructions fetched each cycle (Total)
system.switch_cpus.fetch.rateDist::4          1321623      1.99%     97.16% # Number of instructions fetched each cycle (Total)
system.switch_cpus.fetch.rateDist::5            78557      0.12%     97.27% # Number of instructions fetched each cycle (Total)
system.switch_cpus.fetch.rateDist::6            16914      0.03%     97.30% # Number of instructions fetched each cycle (Total)
system.switch_cpus.fetch.rateDist::7            18019      0.03%     97.33% # Number of instructions fetched each cycle (Total)
system.switch_cpus.fetch.rateDist::8          1771698      2.67%    100.00% # Number of instructions fetched each cycle (Total)
system.switch_cpus.fetch.rateDist::overflows            0      0.00%    100.00% # Number of instructions fetched each cycle (Total)
system.switch_cpus.fetch.rateDist::min_value            0                       # Number of instructions fetched each cycle (Total)
system.switch_cpus.fetch.rateDist::max_value            8                       # Number of instructions fetched each cycle (Total)
system.switch_cpus.fetch.rateDist::total     66291464                       # Number of instructions fetched each cycle (Total)
system.switch_cpus.fp_regfile_reads             45533                       # number of floating regfile reads
system.switch_cpus.fp_regfile_writes              627                       # number of floating regfile writes
system.switch_cpus.idleCycles                  107689                       # Total number of cycles that the CPU has spent unscheduled due to idling
system.switch_cpus.iew.branchMispredicts        14211                       # Number of branch mispredicts detected at execute
system.switch_cpus.iew.exec_branches          1786112                       # Number of branches executed
system.switch_cpus.iew.exec_nop                     0                       # number of nop insts executed
system.switch_cpus.iew.exec_rate             0.319627                       # Inst execution rate
system.switch_cpus.iew.exec_refs              5196524                       # number of memory reference insts executed
system.switch_cpus.iew.exec_stores            1758817                       # Number of stores executed
system.switch_cpus.iew.exec_swp                     0                       # number of swp insts executed
system.switch_cpus.iew.iewBlockCycles          303493                       # Number of cycles IEW is blocking
system.switch_cpus.iew.iewDispLoadInsts       3459292                       # Number of dispatched load instructions
system.switch_cpus.iew.iewDispNonSpecInsts          161                       # Number of dispatched non-speculative instructions
system.switch_cpus.iew.iewDispSquashedInsts          987                       # Number of squashed instructions skipped by dispatch
system.switch_cpus.iew.iewDispStoreInsts      1771431                       # Number of dispatched store instructions
system.switch_cpus.iew.iewDispatchedInsts     21389411                       # Number of instructions dispatched to IQ
system.switch_cpus.iew.iewExecLoadInsts       3437707                       # Number of load instructions executed
system.switch_cpus.iew.iewExecSquashedInsts        21577                       # Number of squashed instructions skipped in execute
system.switch_cpus.iew.iewExecutedInsts      21222979                       # Number of executed instructions
system.switch_cpus.iew.iewIQFullEvents           1260                       # Number of times the IQ has become full, causing a stall
system.switch_cpus.iew.iewIdleCycles                0                       # Number of cycles IEW is idle
system.switch_cpus.iew.iewLSQFullEvents        460402                       # Number of times the LSQ has become full, causing a stall
system.switch_cpus.iew.iewSquashCycles          17501                       # Number of cycles IEW is squashing
system.switch_cpus.iew.iewUnblockCycles        462367                       # Number of cycles IEW is unblocking
system.switch_cpus.iew.lsq.thread0.blockedLoads            0                       # Number of blocked loads due to partial load-store forwarding
system.switch_cpus.iew.lsq.thread0.cacheBlocked          873                       # Number of times an access to memory failed due to the cache being blocked
system.switch_cpus.iew.lsq.thread0.forwLoads        11987                       # Number of loads that had data forwarded from stores
system.switch_cpus.iew.lsq.thread0.ignoredResponses          103                       # Number of memory responses ignored because the instruction is squashed
system.switch_cpus.iew.lsq.thread0.invAddrLoads            0                       # Number of loads ignored due to an invalid address
system.switch_cpus.iew.lsq.thread0.invAddrSwpfs            0                       # Number of software prefetches ignored due to an invalid address
system.switch_cpus.iew.lsq.thread0.memOrderViolation          106                       # Number of memory ordering violations
system.switch_cpus.iew.lsq.thread0.rescheduledLoads            7                       # Number of loads that were rescheduled
system.switch_cpus.iew.lsq.thread0.squashedLoads       240659                       # Number of loads squashed
system.switch_cpus.iew.lsq.thread0.squashedStores       108796                       # Number of stores squashed
system.switch_cpus.iew.memOrderViolationEvents          106                       # Number of memory order violations
system.switch_cpus.iew.predictedNotTakenIncorrect        11602                       # Number of branches that were predicted not taken incorrectly
system.switch_cpus.iew.predictedTakenIncorrect         2609                       # Number of branches that were predicted taken incorrectly
system.switch_cpus.iew.wb_consumers          18135633                       # num instructions consuming a value
system.switch_cpus.iew.wb_count              21119082                       # cumulative count of insts written-back
system.switch_cpus.iew.wb_fanout             0.816374                       # average fanout of values written-back
system.switch_cpus.iew.wb_producers          14805453                       # num instructions producing a value
system.switch_cpus.iew.wb_rate               0.318063                       # insts written-back per cycle
system.switch_cpus.iew.wb_sent               21210900                       # cumulative count of insts sent to commit
system.switch_cpus.int_regfile_reads         26713339                       # number of integer regfile reads
system.switch_cpus.int_regfile_writes        17684409                       # number of integer regfile writes
system.switch_cpus.ipc                       0.150604                       # IPC: Instructions Per Cycle
system.switch_cpus.ipc_total                 0.150604                       # IPC: Total IPC of All Threads
system.switch_cpus.iq.FU_type_0::No_OpClass         9467      0.04%      0.04% # Type of FU issued
system.switch_cpus.iq.FU_type_0::IntAlu      16007055     75.35%     75.39% # Type of FU issued
system.switch_cpus.iq.FU_type_0::IntMult        22820      0.11%     75.50% # Type of FU issued
system.switch_cpus.iq.FU_type_0::IntDiv          1843      0.01%     75.51% # Type of FU issued
system.switch_cpus.iq.FU_type_0::FloatAdd           76      0.00%     75.51% # Type of FU issued
system.switch_cpus.iq.FU_type_0::FloatCmp            0      0.00%     75.51% # Type of FU issued
system.switch_cpus.iq.FU_type_0::FloatCvt          112      0.00%     75.51% # Type of FU issued
system.switch_cpus.iq.FU_type_0::FloatMult            0      0.00%     75.51% # Type of FU issued
system.switch_cpus.iq.FU_type_0::FloatMultAcc            0      0.00%     75.51% # Type of FU issued
system.switch_cpus.iq.FU_type_0::FloatDiv            0      0.00%     75.51% # Type of FU issued
system.switch_cpus.iq.FU_type_0::FloatMisc            0      0.00%     75.51% # Type of FU issued
system.switch_cpus.iq.FU_type_0::FloatSqrt            0      0.00%     75.51% # Type of FU issued
system.switch_cpus.iq.FU_type_0::SimdAdd           16      0.00%     75.51% # Type of FU issued
system.switch_cpus.iq.FU_type_0::SimdAddAcc            0      0.00%     75.51% # Type of FU issued
system.switch_cpus.iq.FU_type_0::SimdAlu           67      0.00%     75.51% # Type of FU issued
system.switch_cpus.iq.FU_type_0::SimdCmp            0      0.00%     75.51% # Type of FU issued
system.switch_cpus.iq.FU_type_0::SimdCvt           78      0.00%     75.51% # Type of FU issued
system.switch_cpus.iq.FU_type_0::SimdMisc           93      0.00%     75.51% # Type of FU issued
system.switch_cpus.iq.FU_type_0::SimdMult            0      0.00%     75.51% # Type of FU issued
system.switch_cpus.iq.FU_type_0::SimdMultAcc            0      0.00%     75.51% # Type of FU issued
system.switch_cpus.iq.FU_type_0::SimdShift           13      0.00%     75.51% # Type of FU issued
system.switch_cpus.iq.FU_type_0::SimdShiftAcc            0      0.00%     75.51% # Type of FU issued
system.switch_cpus.iq.FU_type_0::SimdDiv            0      0.00%     75.51% # Type of FU issued
system.switch_cpus.iq.FU_type_0::SimdSqrt            0      0.00%     75.51% # Type of FU issued
system.switch_cpus.iq.FU_type_0::SimdFloatAdd            0      0.00%     75.51% # Type of FU issued
system.switch_cpus.iq.FU_type_0::SimdFloatAlu            0      0.00%     75.51% # Type of FU issued
system.switch_cpus.iq.FU_type_0::SimdFloatCmp            0      0.00%     75.51% # Type of FU issued
system.switch_cpus.iq.FU_type_0::SimdFloatCvt            0      0.00%     75.51% # Type of FU issued
system.switch_cpus.iq.FU_type_0::SimdFloatDiv            0      0.00%     75.51% # Type of FU issued
system.switch_cpus.iq.FU_type_0::SimdFloatMisc            0      0.00%     75.51% # Type of FU issued
system.switch_cpus.iq.FU_type_0::SimdFloatMult            0      0.00%     75.51% # Type of FU issued
system.switch_cpus.iq.FU_type_0::SimdFloatMultAcc            0      0.00%     75.51% # Type of FU issued
system.switch_cpus.iq.FU_type_0::SimdFloatSqrt            0      0.00%     75.51% # Type of FU issued
system.switch_cpus.iq.FU_type_0::SimdReduceAdd            0      0.00%     75.51% # Type of FU issued
system.switch_cpus.iq.FU_type_0::SimdReduceAlu            0      0.00%     75.51% # Type of FU issued
system.switch_cpus.iq.FU_type_0::SimdReduceCmp            0      0.00%     75.51% # Type of FU issued
system.switch_cpus.iq.FU_type_0::SimdFloatReduceAdd            0      0.00%     75.51% # Type of FU issued
system.switch_cpus.iq.FU_type_0::SimdFloatReduceCmp            0      0.00%     75.51% # Type of FU issued
system.switch_cpus.iq.FU_type_0::SimdAes            0      0.00%     75.51% # Type of FU issued
system.switch_cpus.iq.FU_type_0::SimdAesMix            0      0.00%     75.51% # Type of FU issued
system.switch_cpus.iq.FU_type_0::SimdSha1Hash            0      0.00%     75.51% # Type of FU issued
system.switch_cpus.iq.FU_type_0::SimdSha1Hash2            0      0.00%     75.51% # Type of FU issued
system.switch_cpus.iq.FU_type_0::SimdSha256Hash            0      0.00%     75.51% # Type of FU issued
system.switch_cpus.iq.FU_type_0::SimdSha256Hash2            0      0.00%     75.51% # Type of FU issued
system.switch_cpus.iq.FU_type_0::SimdShaSigma2            0      0.00%     75.51% # Type of FU issued
system.switch_cpus.iq.FU_type_0::SimdShaSigma3            0      0.00%     75.51% # Type of FU issued
system.switch_cpus.iq.FU_type_0::SimdPredAlu            0      0.00%     75.51% # Type of FU issued
system.switch_cpus.iq.FU_type_0::MemRead      3441721     16.20%     91.71% # Type of FU issued
system.switch_cpus.iq.FU_type_0::MemWrite      1715976      8.08%     99.79% # Type of FU issued
system.switch_cpus.iq.FU_type_0::FloatMemRead          334      0.00%     99.79% # Type of FU issued
system.switch_cpus.iq.FU_type_0::FloatMemWrite        44887      0.21%    100.00% # Type of FU issued
system.switch_cpus.iq.FU_type_0::IprAccess            0      0.00%    100.00% # Type of FU issued
system.switch_cpus.iq.FU_type_0::InstPrefetch            0      0.00%    100.00% # Type of FU issued
system.switch_cpus.iq.FU_type_0::total       21244558                       # Type of FU issued
system.switch_cpus.iq.fp_alu_accesses           45737                       # Number of floating point alu accesses
system.switch_cpus.iq.fp_inst_queue_reads        91435                       # Number of floating instruction queue reads
system.switch_cpus.iq.fp_inst_queue_wakeup_accesses        45622                       # Number of floating instruction queue wakeup accesses
system.switch_cpus.iq.fp_inst_queue_writes        46327                       # Number of floating instruction queue writes
system.switch_cpus.iq.fu_busy_cnt               35851                       # FU busy when requested
system.switch_cpus.iq.fu_busy_rate           0.001688                       # FU busy rate (busy events/executed inst)
system.switch_cpus.iq.fu_full::No_OpClass            0      0.00%      0.00% # attempts to use FU when none available
system.switch_cpus.iq.fu_full::IntAlu           33316     92.93%     92.93% # attempts to use FU when none available
system.switch_cpus.iq.fu_full::IntMult              0      0.00%     92.93% # attempts to use FU when none available
system.switch_cpus.iq.fu_full::IntDiv               0      0.00%     92.93% # attempts to use FU when none available
system.switch_cpus.iq.fu_full::FloatAdd             0      0.00%     92.93% # attempts to use FU when none available
system.switch_cpus.iq.fu_full::FloatCmp             0      0.00%     92.93% # attempts to use FU when none available
system.switch_cpus.iq.fu_full::FloatCvt             0      0.00%     92.93% # attempts to use FU when none available
system.switch_cpus.iq.fu_full::FloatMult            0      0.00%     92.93% # attempts to use FU when none available
system.switch_cpus.iq.fu_full::FloatMultAcc            0      0.00%     92.93% # attempts to use FU when none available
system.switch_cpus.iq.fu_full::FloatDiv             0      0.00%     92.93% # attempts to use FU when none available
system.switch_cpus.iq.fu_full::FloatMisc            0      0.00%     92.93% # attempts to use FU when none available
system.switch_cpus.iq.fu_full::FloatSqrt            0      0.00%     92.93% # attempts to use FU when none available
system.switch_cpus.iq.fu_full::SimdAdd              0      0.00%     92.93% # attempts to use FU when none available
system.switch_cpus.iq.fu_full::SimdAddAcc            0      0.00%     92.93% # attempts to use FU when none available
system.switch_cpus.iq.fu_full::SimdAlu              2      0.01%     92.93% # attempts to use FU when none available
system.switch_cpus.iq.fu_full::SimdCmp              0      0.00%     92.93% # attempts to use FU when none available
system.switch_cpus.iq.fu_full::SimdCvt              0      0.00%     92.93% # attempts to use FU when none available
system.switch_cpus.iq.fu_full::SimdMisc             0      0.00%     92.93% # attempts to use FU when none available
system.switch_cpus.iq.fu_full::SimdMult             0      0.00%     92.93% # attempts to use FU when none available
system.switch_cpus.iq.fu_full::SimdMultAcc            0      0.00%     92.93% # attempts to use FU when none available
system.switch_cpus.iq.fu_full::SimdShift            2      0.01%     92.94% # attempts to use FU when none available
system.switch_cpus.iq.fu_full::SimdShiftAcc            0      0.00%     92.94% # attempts to use FU when none available
system.switch_cpus.iq.fu_full::SimdDiv              0      0.00%     92.94% # attempts to use FU when none available
system.switch_cpus.iq.fu_full::SimdSqrt             0      0.00%     92.94% # attempts to use FU when none available
system.switch_cpus.iq.fu_full::SimdFloatAdd            0      0.00%     92.94% # attempts to use FU when none available
system.switch_cpus.iq.fu_full::SimdFloatAlu            0      0.00%     92.94% # attempts to use FU when none available
system.switch_cpus.iq.fu_full::SimdFloatCmp            0      0.00%     92.94% # attempts to use FU when none available
system.switch_cpus.iq.fu_full::SimdFloatCvt            0      0.00%     92.94% # attempts to use FU when none available
system.switch_cpus.iq.fu_full::SimdFloatDiv            0      0.00%     92.94% # attempts to use FU when none available
system.switch_cpus.iq.fu_full::SimdFloatMisc            0      0.00%     92.94% # attempts to use FU when none available
system.switch_cpus.iq.fu_full::SimdFloatMult            0      0.00%     92.94% # attempts to use FU when none available
system.switch_cpus.iq.fu_full::SimdFloatMultAcc            0      0.00%     92.94% # attempts to use FU when none available
system.switch_cpus.iq.fu_full::SimdFloatSqrt            0      0.00%     92.94% # attempts to use FU when none available
system.switch_cpus.iq.fu_full::SimdReduceAdd            0      0.00%     92.94% # attempts to use FU when none available
system.switch_cpus.iq.fu_full::SimdReduceAlu            0      0.00%     92.94% # attempts to use FU when none available
system.switch_cpus.iq.fu_full::SimdReduceCmp            0      0.00%     92.94% # attempts to use FU when none available
system.switch_cpus.iq.fu_full::SimdFloatReduceAdd            0      0.00%     92.94% # attempts to use FU when none available
system.switch_cpus.iq.fu_full::SimdFloatReduceCmp            0      0.00%     92.94% # attempts to use FU when none available
system.switch_cpus.iq.fu_full::SimdAes              0      0.00%     92.94% # attempts to use FU when none available
system.switch_cpus.iq.fu_full::SimdAesMix            0      0.00%     92.94% # attempts to use FU when none available
system.switch_cpus.iq.fu_full::SimdSha1Hash            0      0.00%     92.94% # attempts to use FU when none available
system.switch_cpus.iq.fu_full::SimdSha1Hash2            0      0.00%     92.94% # attempts to use FU when none available
system.switch_cpus.iq.fu_full::SimdSha256Hash            0      0.00%     92.94% # attempts to use FU when none available
system.switch_cpus.iq.fu_full::SimdSha256Hash2            0      0.00%     92.94% # attempts to use FU when none available
system.switch_cpus.iq.fu_full::SimdShaSigma2            0      0.00%     92.94% # attempts to use FU when none available
system.switch_cpus.iq.fu_full::SimdShaSigma3            0      0.00%     92.94% # attempts to use FU when none available
system.switch_cpus.iq.fu_full::SimdPredAlu            0      0.00%     92.94% # attempts to use FU when none available
system.switch_cpus.iq.fu_full::MemRead           1502      4.19%     97.13% # attempts to use FU when none available
system.switch_cpus.iq.fu_full::MemWrite           990      2.76%     99.89% # attempts to use FU when none available
system.switch_cpus.iq.fu_full::FloatMemRead           30      0.08%     99.97% # attempts to use FU when none available
system.switch_cpus.iq.fu_full::FloatMemWrite            9      0.03%    100.00% # attempts to use FU when none available
system.switch_cpus.iq.fu_full::IprAccess            0      0.00%    100.00% # attempts to use FU when none available
system.switch_cpus.iq.fu_full::InstPrefetch            0      0.00%    100.00% # attempts to use FU when none available
system.switch_cpus.iq.int_alu_accesses       21225205                       # Number of integer alu accesses
system.switch_cpus.iq.int_inst_queue_reads    108728278                       # Number of integer instruction queue reads
system.switch_cpus.iq.int_inst_queue_wakeup_accesses     21073460                       # Number of integer instruction queue wakeup accesses
system.switch_cpus.iq.int_inst_queue_writes     22867204                       # Number of integer instruction queue writes
system.switch_cpus.iq.iqInstsAdded           21389200                       # Number of instructions added to the IQ (excludes non-spec)
system.switch_cpus.iq.iqInstsIssued          21244558                       # Number of instructions issued
system.switch_cpus.iq.iqNonSpecInstsAdded          211                       # Number of non-speculative instructions added to the IQ
system.switch_cpus.iq.iqSquashedInstsExamined      1524026                       # Number of squashed instructions iterated over during squash; mainly for profiling
system.switch_cpus.iq.iqSquashedInstsIssued         3284                       # Number of squashed instructions issued
system.switch_cpus.iq.iqSquashedNonSpecRemoved          108                       # Number of squashed non-spec instructions that were removed
system.switch_cpus.iq.iqSquashedOperandsExamined       973460                       # Number of squashed operands that are examined and possibly removed from graph
system.switch_cpus.iq.issued_per_cycle::samples     66291464                       # Number of insts issued each cycle
system.switch_cpus.iq.issued_per_cycle::mean     0.320472                       # Number of insts issued each cycle
system.switch_cpus.iq.issued_per_cycle::stdev     1.231073                       # Number of insts issued each cycle
system.switch_cpus.iq.issued_per_cycle::underflows            0      0.00%      0.00% # Number of insts issued each cycle
system.switch_cpus.iq.issued_per_cycle::0     60703597     91.57%     91.57% # Number of insts issued each cycle
system.switch_cpus.iq.issued_per_cycle::1      1228763      1.85%     93.42% # Number of insts issued each cycle
system.switch_cpus.iq.issued_per_cycle::2       844396      1.27%     94.70% # Number of insts issued each cycle
system.switch_cpus.iq.issued_per_cycle::3       535744      0.81%     95.51% # Number of insts issued each cycle
system.switch_cpus.iq.issued_per_cycle::4       483707      0.73%     96.24% # Number of insts issued each cycle
system.switch_cpus.iq.issued_per_cycle::5      1104002      1.67%     97.90% # Number of insts issued each cycle
system.switch_cpus.iq.issued_per_cycle::6       722250      1.09%     98.99% # Number of insts issued each cycle
system.switch_cpus.iq.issued_per_cycle::7       420607      0.63%     99.63% # Number of insts issued each cycle
system.switch_cpus.iq.issued_per_cycle::8       248398      0.37%    100.00% # Number of insts issued each cycle
system.switch_cpus.iq.issued_per_cycle::overflows            0      0.00%    100.00% # Number of insts issued each cycle
system.switch_cpus.iq.issued_per_cycle::min_value            0                       # Number of insts issued each cycle
system.switch_cpus.iq.issued_per_cycle::max_value            8                       # Number of insts issued each cycle
system.switch_cpus.iq.issued_per_cycle::total     66291464                       # Number of insts issued each cycle
system.switch_cpus.iq.rate                   0.319952                       # Inst issue rate
system.switch_cpus.iq.vec_alu_accesses              0                       # Number of vector alu accesses
system.switch_cpus.iq.vec_inst_queue_reads            0                       # Number of vector instruction queue reads
system.switch_cpus.iq.vec_inst_queue_wakeup_accesses            0                       # Number of vector instruction queue wakeup accesses
system.switch_cpus.iq.vec_inst_queue_writes            0                       # Number of vector instruction queue writes
system.switch_cpus.itb.rdAccesses                   0                       # TLB accesses on read requests
system.switch_cpus.itb.rdMisses                     0                       # TLB misses on read requests
system.switch_cpus.itb.wrAccesses             1008942                       # TLB accesses on write requests
system.switch_cpus.itb.wrMisses                   632                       # TLB misses on write requests
system.switch_cpus.memDep0.conflictingLoads       167776                       # Number of conflicting loads.
system.switch_cpus.memDep0.conflictingStores       124500                       # Number of conflicting stores.
system.switch_cpus.memDep0.insertedLoads      3459292                       # Number of loads inserted to the mem dependence unit.
system.switch_cpus.memDep0.insertedStores      1771431                       # Number of stores inserted to the mem dependence unit.
system.switch_cpus.misc_regfile_reads         8794421                       # number of misc regfile reads
system.switch_cpus.misc_regfile_writes             64                       # number of misc regfile writes
system.switch_cpus.numCycles                 66399153                       # number of cpu cycles simulated
system.switch_cpus.numWorkItemsCompleted            0                       # number of work items this cpu completed
system.switch_cpus.numWorkItemsStarted              0                       # number of work items this cpu started
system.switch_cpus.rename.BlockCycles         5292373                       # Number of cycles rename is blocking
system.switch_cpus.rename.CommittedMaps      26447881                       # Number of HB maps that are committed
system.switch_cpus.rename.IQFullEvents          73377                       # Number of times rename has blocked due to IQ full
system.switch_cpus.rename.IdleCycles          1193262                       # Number of cycles rename is idle
system.switch_cpus.rename.LQFullEvents           7474                       # Number of times rename has blocked due to LQ full
system.switch_cpus.rename.ROBFullEvents         54468                       # Number of times rename has blocked due to ROB full
system.switch_cpus.rename.RenameLookups      45264511                       # Number of register rename lookups that rename has made
system.switch_cpus.rename.RenamedInsts       21470777                       # Number of instructions processed by rename
system.switch_cpus.rename.RenamedOperands     28543462                       # Number of destination operands rename has renamed
system.switch_cpus.rename.RunCycles           2465309                       # Number of cycles rename is running
system.switch_cpus.rename.SQFullEvents       56836968                       # Number of times rename has blocked due to SQ full
system.switch_cpus.rename.SquashCycles          17501                       # Number of cycles rename is squashing
system.switch_cpus.rename.UnblockCycles      57317558                       # Number of cycles rename is unblocking
system.switch_cpus.rename.UndoneMaps          2095421                       # Number of HB maps that are undone due to squashing
system.switch_cpus.rename.fp_rename_lookups        46230                       # Number of floating rename lookups
system.switch_cpus.rename.int_rename_lookups     27176490                       # Number of integer rename lookups
system.switch_cpus.rename.serializeStallCycles         5460                       # count of cycles rename stalled for serializing inst
system.switch_cpus.rename.serializingInsts          168                       # count of serializing insts renamed
system.switch_cpus.rename.skidInsts           5533414                       # count of insts added to the skid buffer
system.switch_cpus.rename.tempSerializingInsts          142                       # count of temporary serializing insts renamed
system.switch_cpus.rob.rob_reads             86229757                       # The number of ROB reads
system.switch_cpus.rob.rob_writes            42979838                       # The number of ROB writes
system.switch_cpus.timesIdled                    1629                       # Number of times that the entire CPU went into an idle state and unscheduled itself
system.tol2bus.snoop_filter.hit_multi_requests            4                       # Number of requests hitting in the snoop filter with multiple (>1) holders of the requested data.
system.tol2bus.snoop_filter.hit_multi_snoops            1                       # Number of snoops hitting in the snoop filter with multiple (>1) holders of the requested data.
system.tol2bus.snoop_filter.hit_single_requests       390964                       # Number of requests hitting in the snoop filter with a single holder of the requested data.
system.tol2bus.snoop_filter.hit_single_snoops         1361                       # Number of snoops hitting in the snoop filter with a single holder of the requested data.
system.tol2bus.snoop_filter.tot_requests       782058                       # Total number of requests made to the snoop filter.
system.tol2bus.snoop_filter.tot_snoops           1362                       # Total number of snoops made to the snoop filter.
system.membus.trans_dist::ReadResp               5237                       # Transaction distribution
system.membus.trans_dist::WritebackDirty       378790                       # Transaction distribution
system.membus.trans_dist::CleanEvict             4617                       # Transaction distribution
system.membus.trans_dist::ReadExReq            378492                       # Transaction distribution
system.membus.trans_dist::ReadExResp           378492                       # Transaction distribution
system.membus.trans_dist::ReadSharedReq          5237                       # Transaction distribution
system.membus.pkt_count_system.l2.mem_side::system.mem_ctrls.port      1150865                       # Packet count per connected master and slave (bytes)
system.membus.pkt_count_system.l2.mem_side::total      1150865                       # Packet count per connected master and slave (bytes)
system.membus.pkt_count::total                1150865                       # Packet count per connected master and slave (bytes)
system.membus.pkt_size_system.l2.mem_side::system.mem_ctrls.port     48801216                       # Cumulative packet size per connected master and slave (bytes)
system.membus.pkt_size_system.l2.mem_side::total     48801216                       # Cumulative packet size per connected master and slave (bytes)
system.membus.pkt_size::total                48801216                       # Cumulative packet size per connected master and slave (bytes)
system.membus.snoops                                0                       # Total snoops (count)
system.membus.snoopTraffic                          0                       # Total snoop traffic (bytes)
system.membus.snoop_fanout::samples            383729                       # Request fanout histogram
system.membus.snoop_fanout::mean                    0                       # Request fanout histogram
system.membus.snoop_fanout::stdev                   0                       # Request fanout histogram
system.membus.snoop_fanout::underflows              0      0.00%      0.00% # Request fanout histogram
system.membus.snoop_fanout::0                  383729    100.00%    100.00% # Request fanout histogram
system.membus.snoop_fanout::1                       0      0.00%    100.00% # Request fanout histogram
system.membus.snoop_fanout::overflows               0      0.00%    100.00% # Request fanout histogram
system.membus.snoop_fanout::min_value               0                       # Request fanout histogram
system.membus.snoop_fanout::max_value               0                       # Request fanout histogram
system.membus.snoop_fanout::total              383729                       # Request fanout histogram
system.membus.reqLayer2.occupancy          2353132000                       # Layer occupancy (ticks)
system.membus.reqLayer2.utilization               7.1                       # Layer utilization (%)
system.membus.respLayer1.occupancy         2025055250                       # Layer occupancy (ticks)
system.membus.respLayer1.utilization              6.1                       # Layer utilization (%)
system.membus.power_state.pwrStateResidencyTicks::UNDEFINED  33199587000                       # Cumulative time (in ticks) in various power states
system.switch_cpus.dtb.walker.power_state.pwrStateResidencyTicks::UNDEFINED  33199587000                       # Cumulative time (in ticks) in various power states
system.switch_cpus.itb.walker.power_state.pwrStateResidencyTicks::UNDEFINED  33199587000                       # Cumulative time (in ticks) in various power states
system.switch_cpus.power_state.pwrStateResidencyTicks::OFF  33199587000                       # Cumulative time (in ticks) in various power states
system.tol2bus.trans_dist::ReadResp             11722                       # Transaction distribution
system.tol2bus.trans_dist::WritebackDirty       760881                       # Transaction distribution
system.tol2bus.trans_dist::WritebackClean         3110                       # Transaction distribution
system.tol2bus.trans_dist::CleanEvict           11491                       # Transaction distribution
system.tol2bus.trans_dist::UpgradeReq               1                       # Transaction distribution
system.tol2bus.trans_dist::UpgradeResp              1                       # Transaction distribution
system.tol2bus.trans_dist::ReadExReq           379371                       # Transaction distribution
system.tol2bus.trans_dist::ReadExResp          379371                       # Transaction distribution
system.tol2bus.trans_dist::ReadCleanReq          3175                       # Transaction distribution
system.tol2bus.trans_dist::ReadSharedReq         8547                       # Transaction distribution
system.tol2bus.pkt_count_system.cpu.icache.mem_side::system.l2.cpu_side         9459                       # Packet count per connected master and slave (bytes)
system.tol2bus.pkt_count_system.cpu.dcache.mem_side::system.l2.cpu_side      1163692                       # Packet count per connected master and slave (bytes)
system.tol2bus.pkt_count::total               1173151                       # Packet count per connected master and slave (bytes)
system.tol2bus.pkt_size_system.cpu.icache.mem_side::system.l2.cpu_side       402176                       # Cumulative packet size per connected master and slave (bytes)
system.tol2bus.pkt_size_system.cpu.dcache.mem_side::system.l2.cpu_side     49280576                       # Cumulative packet size per connected master and slave (bytes)
system.tol2bus.pkt_size::total               49682752                       # Cumulative packet size per connected master and slave (bytes)
system.tol2bus.snoops                          384519                       # Total snoops (count)
system.tol2bus.snoopTraffic                  24242624                       # Total snoop traffic (bytes)
system.tol2bus.snoop_fanout::samples           775612                       # Request fanout histogram
system.tol2bus.snoop_fanout::mean            0.001762                       # Request fanout histogram
system.tol2bus.snoop_fanout::stdev           0.041976                       # Request fanout histogram
system.tol2bus.snoop_fanout::underflows             0      0.00%      0.00% # Request fanout histogram
system.tol2bus.snoop_fanout::0                 774246     99.82%     99.82% # Request fanout histogram
system.tol2bus.snoop_fanout::1                   1365      0.18%    100.00% # Request fanout histogram
system.tol2bus.snoop_fanout::2                      1      0.00%    100.00% # Request fanout histogram
system.tol2bus.snoop_fanout::3                      0      0.00%    100.00% # Request fanout histogram
system.tol2bus.snoop_fanout::4                      0      0.00%    100.00% # Request fanout histogram
system.tol2bus.snoop_fanout::overflows              0      0.00%    100.00% # Request fanout histogram
system.tol2bus.snoop_fanout::min_value              0                       # Request fanout histogram
system.tol2bus.snoop_fanout::max_value              2                       # Request fanout histogram
system.tol2bus.snoop_fanout::total             775612                       # Request fanout histogram
system.tol2bus.reqLayer0.occupancy          776228000                       # Layer occupancy (ticks)
system.tol2bus.reqLayer0.utilization              2.3                       # Layer utilization (%)
system.tol2bus.respLayer1.occupancy         581876995                       # Layer occupancy (ticks)
system.tol2bus.respLayer1.utilization             1.8                       # Layer utilization (%)
system.tol2bus.respLayer0.occupancy           4772474                       # Layer occupancy (ticks)
system.tol2bus.respLayer0.utilization             0.0                       # Layer utilization (%)
system.tol2bus.power_state.pwrStateResidencyTicks::UNDEFINED  33199587000                       # Cumulative time (in ticks) in various power states
system.voltage_domain.voltage                       1                       # Voltage in Volts
system.clk_domain.clock                          1000                       # Clock period in ticks
system.l2.demand_hits::.switch_cpus.inst         1698                       # number of demand (read+write) hits
system.l2.demand_hits::.switch_cpus.data         5663                       # number of demand (read+write) hits
system.l2.demand_hits::total                     7361                       # number of demand (read+write) hits
system.l2.overall_hits::.switch_cpus.inst         1698                       # number of overall hits
system.l2.overall_hits::.switch_cpus.data         5663                       # number of overall hits
system.l2.overall_hits::total                    7361                       # number of overall hits
system.l2.demand_misses::.cpu.inst                  2                       # number of demand (read+write) misses
system.l2.demand_misses::.cpu.data                  2                       # number of demand (read+write) misses
system.l2.demand_misses::.switch_cpus.inst         1474                       # number of demand (read+write) misses
system.l2.demand_misses::.switch_cpus.data       382253                       # number of demand (read+write) misses
system.l2.demand_misses::total                 383731                       # number of demand (read+write) misses
system.l2.overall_misses::.cpu.inst                 2                       # number of overall misses
system.l2.overall_misses::.cpu.data                 2                       # number of overall misses
system.l2.overall_misses::.switch_cpus.inst         1474                       # number of overall misses
system.l2.overall_misses::.switch_cpus.data       382253                       # number of overall misses
system.l2.overall_misses::total                383731                       # number of overall misses
system.l2.demand_miss_latency::.switch_cpus.inst    120617500                       # number of demand (read+write) miss cycles
system.l2.demand_miss_latency::.switch_cpus.data  30607839500                       # number of demand (read+write) miss cycles
system.l2.demand_miss_latency::total      30728457000                       # number of demand (read+write) miss cycles
system.l2.overall_miss_latency::.switch_cpus.inst    120617500                       # number of overall miss cycles
system.l2.overall_miss_latency::.switch_cpus.data  30607839500                       # number of overall miss cycles
system.l2.overall_miss_latency::total     30728457000                       # number of overall miss cycles
system.l2.demand_accesses::.cpu.inst                2                       # number of demand (read+write) accesses
system.l2.demand_accesses::.cpu.data                2                       # number of demand (read+write) accesses
system.l2.demand_accesses::.switch_cpus.inst         3172                       # number of demand (read+write) accesses
system.l2.demand_accesses::.switch_cpus.data       387916                       # number of demand (read+write) accesses
system.l2.demand_accesses::total               391092                       # number of demand (read+write) accesses
system.l2.overall_accesses::.cpu.inst               2                       # number of overall (read+write) accesses
system.l2.overall_accesses::.cpu.data               2                       # number of overall (read+write) accesses
system.l2.overall_accesses::.switch_cpus.inst         3172                       # number of overall (read+write) accesses
system.l2.overall_accesses::.switch_cpus.data       387916                       # number of overall (read+write) accesses
system.l2.overall_accesses::total              391092                       # number of overall (read+write) accesses
system.l2.demand_miss_rate::.cpu.inst               1                       # miss rate for demand accesses
system.l2.demand_miss_rate::.cpu.data               1                       # miss rate for demand accesses
system.l2.demand_miss_rate::.switch_cpus.inst     0.464691                       # miss rate for demand accesses
system.l2.demand_miss_rate::.switch_cpus.data     0.985401                       # miss rate for demand accesses
system.l2.demand_miss_rate::total            0.981178                       # miss rate for demand accesses
system.l2.overall_miss_rate::.cpu.inst              1                       # miss rate for overall accesses
system.l2.overall_miss_rate::.cpu.data              1                       # miss rate for overall accesses
system.l2.overall_miss_rate::.switch_cpus.inst     0.464691                       # miss rate for overall accesses
system.l2.overall_miss_rate::.switch_cpus.data     0.985401                       # miss rate for overall accesses
system.l2.overall_miss_rate::total           0.981178                       # miss rate for overall accesses
system.l2.demand_avg_miss_latency::.switch_cpus.inst 81830.054274                       # average overall miss latency
system.l2.demand_avg_miss_latency::.switch_cpus.data 80072.202180                       # average overall miss latency
system.l2.demand_avg_miss_latency::total 80078.119829                       # average overall miss latency
system.l2.overall_avg_miss_latency::.switch_cpus.inst 81830.054274                       # average overall miss latency
system.l2.overall_avg_miss_latency::.switch_cpus.data 80072.202180                       # average overall miss latency
system.l2.overall_avg_miss_latency::total 80078.119829                       # average overall miss latency
system.l2.blocked_cycles::no_mshrs                  0                       # number of cycles access was blocked
system.l2.blocked_cycles::no_targets                0                       # number of cycles access was blocked
system.l2.blocked::no_mshrs                         0                       # number of cycles access was blocked
system.l2.blocked::no_targets                       0                       # number of cycles access was blocked
system.l2.avg_blocked_cycles::no_mshrs            nan                       # average number of cycles each access was blocked
system.l2.avg_blocked_cycles::no_targets          nan                       # average number of cycles each access was blocked
system.l2.writebacks::.writebacks              378790                       # number of writebacks
system.l2.writebacks::total                    378790                       # number of writebacks
system.l2.demand_mshr_hits::.switch_cpus.inst            2                       # number of demand (read+write) MSHR hits
system.l2.demand_mshr_hits::total                   2                       # number of demand (read+write) MSHR hits
system.l2.overall_mshr_hits::.switch_cpus.inst            2                       # number of overall MSHR hits
system.l2.overall_mshr_hits::total                  2                       # number of overall MSHR hits
system.l2.demand_mshr_misses::.switch_cpus.inst         1472                       # number of demand (read+write) MSHR misses
system.l2.demand_mshr_misses::.switch_cpus.data       382253                       # number of demand (read+write) MSHR misses
system.l2.demand_mshr_misses::total            383725                       # number of demand (read+write) MSHR misses
system.l2.overall_mshr_misses::.switch_cpus.inst         1472                       # number of overall MSHR misses
system.l2.overall_mshr_misses::.switch_cpus.data       382253                       # number of overall MSHR misses
system.l2.overall_mshr_misses::total           383725                       # number of overall MSHR misses
system.l2.demand_mshr_miss_latency::.switch_cpus.inst    105738500                       # number of demand (read+write) MSHR miss cycles
system.l2.demand_mshr_miss_latency::.switch_cpus.data  26785309500                       # number of demand (read+write) MSHR miss cycles
system.l2.demand_mshr_miss_latency::total  26891048000                       # number of demand (read+write) MSHR miss cycles
system.l2.overall_mshr_miss_latency::.switch_cpus.inst    105738500                       # number of overall MSHR miss cycles
system.l2.overall_mshr_miss_latency::.switch_cpus.data  26785309500                       # number of overall MSHR miss cycles
system.l2.overall_mshr_miss_latency::total  26891048000                       # number of overall MSHR miss cycles
system.l2.demand_mshr_miss_rate::.switch_cpus.inst     0.464061                       # mshr miss rate for demand accesses
system.l2.demand_mshr_miss_rate::.switch_cpus.data     0.985401                       # mshr miss rate for demand accesses
system.l2.demand_mshr_miss_rate::total       0.981163                       # mshr miss rate for demand accesses
system.l2.overall_mshr_miss_rate::.switch_cpus.inst     0.464061                       # mshr miss rate for overall accesses
system.l2.overall_mshr_miss_rate::.switch_cpus.data     0.985401                       # mshr miss rate for overall accesses
system.l2.overall_mshr_miss_rate::total      0.981163                       # mshr miss rate for overall accesses
system.l2.demand_avg_mshr_miss_latency::.switch_cpus.inst 71833.220109                       # average overall mshr miss latency
system.l2.demand_avg_mshr_miss_latency::.switch_cpus.data 70072.202180                       # average overall mshr miss latency
system.l2.demand_avg_mshr_miss_latency::total 70078.957587                       # average overall mshr miss latency
system.l2.overall_avg_mshr_miss_latency::.switch_cpus.inst 71833.220109                       # average overall mshr miss latency
system.l2.overall_avg_mshr_miss_latency::.switch_cpus.data 70072.202180                       # average overall mshr miss latency
system.l2.overall_avg_mshr_miss_latency::total 70078.957587                       # average overall mshr miss latency
system.l2.replacements                         384518                       # number of replacements
system.l2.WritebackDirty_hits::.writebacks       382091                       # number of WritebackDirty hits
system.l2.WritebackDirty_hits::total           382091                       # number of WritebackDirty hits
system.l2.WritebackDirty_accesses::.writebacks       382091                       # number of WritebackDirty accesses(hits+misses)
system.l2.WritebackDirty_accesses::total       382091                       # number of WritebackDirty accesses(hits+misses)
system.l2.WritebackClean_hits::.writebacks         3109                       # number of WritebackClean hits
system.l2.WritebackClean_hits::total             3109                       # number of WritebackClean hits
system.l2.WritebackClean_accesses::.writebacks         3109                       # number of WritebackClean accesses(hits+misses)
system.l2.WritebackClean_accesses::total         3109                       # number of WritebackClean accesses(hits+misses)
system.l2.CleanEvict_mshr_misses::.writebacks          250                       # number of CleanEvict MSHR misses
system.l2.CleanEvict_mshr_misses::total           250                       # number of CleanEvict MSHR misses
system.l2.CleanEvict_mshr_miss_rate::.writebacks          inf                       # mshr miss rate for CleanEvict accesses
system.l2.CleanEvict_mshr_miss_rate::total          inf                       # mshr miss rate for CleanEvict accesses
system.l2.UpgradeReq_hits::.switch_cpus.data            1                       # number of UpgradeReq hits
system.l2.UpgradeReq_hits::total                    1                       # number of UpgradeReq hits
system.l2.UpgradeReq_accesses::.switch_cpus.data            1                       # number of UpgradeReq accesses(hits+misses)
system.l2.UpgradeReq_accesses::total                1                       # number of UpgradeReq accesses(hits+misses)
system.l2.ReadExReq_hits::.switch_cpus.data          879                       # number of ReadExReq hits
system.l2.ReadExReq_hits::total                   879                       # number of ReadExReq hits
system.l2.ReadExReq_misses::.cpu.data               2                       # number of ReadExReq misses
system.l2.ReadExReq_misses::.switch_cpus.data       378490                       # number of ReadExReq misses
system.l2.ReadExReq_misses::total              378492                       # number of ReadExReq misses
system.l2.ReadExReq_miss_latency::.switch_cpus.data  30301806000                       # number of ReadExReq miss cycles
system.l2.ReadExReq_miss_latency::total   30301806000                       # number of ReadExReq miss cycles
system.l2.ReadExReq_accesses::.cpu.data             2                       # number of ReadExReq accesses(hits+misses)
system.l2.ReadExReq_accesses::.switch_cpus.data       379369                       # number of ReadExReq accesses(hits+misses)
system.l2.ReadExReq_accesses::total            379371                       # number of ReadExReq accesses(hits+misses)
system.l2.ReadExReq_miss_rate::.cpu.data            1                       # miss rate for ReadExReq accesses
system.l2.ReadExReq_miss_rate::.switch_cpus.data     0.997683                       # miss rate for ReadExReq accesses
system.l2.ReadExReq_miss_rate::total         0.997683                       # miss rate for ReadExReq accesses
system.l2.ReadExReq_avg_miss_latency::.switch_cpus.data 80059.726809                       # average ReadExReq miss latency
system.l2.ReadExReq_avg_miss_latency::total 80059.303763                       # average ReadExReq miss latency
system.l2.ReadExReq_mshr_misses::.switch_cpus.data       378490                       # number of ReadExReq MSHR misses
system.l2.ReadExReq_mshr_misses::total         378490                       # number of ReadExReq MSHR misses
system.l2.ReadExReq_mshr_miss_latency::.switch_cpus.data  26516906000                       # number of ReadExReq MSHR miss cycles
system.l2.ReadExReq_mshr_miss_latency::total  26516906000                       # number of ReadExReq MSHR miss cycles
system.l2.ReadExReq_mshr_miss_rate::.switch_cpus.data     0.997683                       # mshr miss rate for ReadExReq accesses
system.l2.ReadExReq_mshr_miss_rate::total     0.997678                       # mshr miss rate for ReadExReq accesses
system.l2.ReadExReq_avg_mshr_miss_latency::.switch_cpus.data 70059.726809                       # average ReadExReq mshr miss latency
[...]
system.cpu.itb_walker_cache.blocked_cycles::no_mshrs            0                       # number of cycles access was blocked
system.cpu.itb_walker_cache.blocked_cycles::no_targets            0                       # number of cycles access was blocked
system.cpu.itb_walker_cache.blocked::no_mshrs            0                       # number of cycles access was blocked
system.cpu.itb_walker_cache.blocked::no_targets            0                       # number of cycles access was blocked
system.cpu.itb_walker_cache.avg_blocked_cycles::no_mshrs          nan                       # average number of cycles each access was blocked
system.cpu.itb_walker_cache.avg_blocked_cycles::no_targets          nan                       # average number of cycles each access was blocked
system.cpu.itb_walker_cache.replacements            0                       # number of replacements
system.cpu.itb_walker_cache.power_state.pwrStateResidencyTicks::UNDEFINED  34892357500                       # Cumulative time (in ticks) in various power states
system.cpu.itb_walker_cache.tags.tagsinuse            0                       # Cycle average of tags in use
system.cpu.itb_walker_cache.tags.total_refs            0                       # Total number of references to valid blocks.
system.cpu.itb_walker_cache.tags.sampled_refs            0                       # Sample count of references to valid blocks.
system.cpu.itb_walker_cache.tags.avg_refs          nan                       # Average number of references to valid blocks.
system.cpu.itb_walker_cache.tags.warmup_cycle            0                       # Cycle when the warmup percentage was hit.
system.cpu.itb_walker_cache.tags.tag_accesses            0                       # Number of tag accesses
system.cpu.itb_walker_cache.tags.data_accesses            0                       # Number of data accesses
system.cpu.itb_walker_cache.tags.power_state.pwrStateResidencyTicks::UNDEFINED  34892357500                       # Cumulative time (in ticks) in various power states
system.cpu.itb.walker.power_state.pwrStateResidencyTicks::UNDEFINED  34892357500                       # Cumulative time (in ticks) in various power states
system.cpu.dtb_walker_cache.blocked_cycles::no_mshrs            0                       # number of cycles access was blocked
system.cpu.dtb_walker_cache.blocked_cycles::no_targets            0                       # number of cycles access was blocked
system.cpu.dtb_walker_cache.blocked::no_mshrs            0                       # number of cycles access was blocked
system.cpu.dtb_walker_cache.blocked::no_targets            0                       # number of cycles access was blocked
system.cpu.dtb_walker_cache.avg_blocked_cycles::no_mshrs          nan                       # average number of cycles each access was blocked
system.cpu.dtb_walker_cache.avg_blocked_cycles::no_targets          nan                       # average number of cycles each access was blocked
system.cpu.dtb_walker_cache.replacements            0                       # number of replacements
system.cpu.dtb_walker_cache.power_state.pwrStateResidencyTicks::UNDEFINED  34892357500                       # Cumulative time (in ticks) in various power states
system.cpu.dtb_walker_cache.tags.tagsinuse            0                       # Cycle average of tags in use
system.cpu.dtb_walker_cache.tags.total_refs            0                       # Total number of references to valid blocks.
system.cpu.dtb_walker_cache.tags.sampled_refs            0                       # Sample count of references to valid blocks.
system.cpu.dtb_walker_cache.tags.avg_refs          nan                       # Average number of references to valid blocks.
system.cpu.dtb_walker_cache.tags.warmup_cycle            0                       # Cycle when the warmup percentage was hit.
system.cpu.dtb_walker_cache.tags.tag_accesses            0                       # Number of tag accesses
system.cpu.dtb_walker_cache.tags.data_accesses            0                       # Number of data accesses
system.cpu.dtb_walker_cache.tags.power_state.pwrStateResidencyTicks::UNDEFINED  34892357500                       # Cumulative time (in ticks) in various power states
system.cpu.dcache.demand_hits::.cpu.data            5                       # number of demand (read+write) hits
system.cpu.dcache.demand_hits::.switch_cpus.data      5115557                       # number of demand (read+write) hits
system.cpu.dcache.demand_hits::total          5115562                       # number of demand (read+write) hits
system.cpu.dcache.overall_hits::.cpu.data            5                       # number of overall hits
system.cpu.dcache.overall_hits::.switch_cpus.data      5115557                       # number of overall hits
system.cpu.dcache.overall_hits::total         5115562                       # number of overall hits
system.cpu.dcache.demand_misses::.cpu.data            2                       # number of demand (read+write) misses
system.cpu.dcache.demand_misses::.switch_cpus.data       419434                       # number of demand (read+write) misses
system.cpu.dcache.demand_misses::total         419436                       # number of demand (read+write) misses
system.cpu.dcache.overall_misses::.cpu.data            2                       # number of overall misses
system.cpu.dcache.overall_misses::.switch_cpus.data       419434                       # number of overall misses
system.cpu.dcache.overall_misses::total        419436                       # number of overall misses
system.cpu.dcache.demand_miss_latency::.switch_cpus.data  33798258972                       # number of demand (read+write) miss cycles
system.cpu.dcache.demand_miss_latency::total  33798258972                       # number of demand (read+write) miss cycles
system.cpu.dcache.overall_miss_latency::.switch_cpus.data  33798258972                       # number of overall miss cycles
system.cpu.dcache.overall_miss_latency::total  33798258972                       # number of overall miss cycles
system.cpu.dcache.demand_accesses::.cpu.data            7                       # number of demand (read+write) accesses
system.cpu.dcache.demand_accesses::.switch_cpus.data      5534991                       # number of demand (read+write) accesses
system.cpu.dcache.demand_accesses::total      5534998                       # number of demand (read+write) accesses
system.cpu.dcache.overall_accesses::.cpu.data            7                       # number of overall (read+write) accesses
system.cpu.dcache.overall_accesses::.switch_cpus.data      5534991                       # number of overall (read+write) accesses
system.cpu.dcache.overall_accesses::total      5534998                       # number of overall (read+write) accesses
system.cpu.dcache.demand_miss_rate::.cpu.data     0.285714                       # miss rate for demand accesses
system.cpu.dcache.demand_miss_rate::.switch_cpus.data     0.075779                       # miss rate for demand accesses
system.cpu.dcache.demand_miss_rate::total     0.075779                       # miss rate for demand accesses
system.cpu.dcache.overall_miss_rate::.cpu.data     0.285714                       # miss rate for overall accesses
system.cpu.dcache.overall_miss_rate::.switch_cpus.data     0.075779                       # miss rate for overall accesses
system.cpu.dcache.overall_miss_rate::total     0.075779                       # miss rate for overall accesses
system.cpu.dcache.demand_avg_miss_latency::.switch_cpus.data 80580.637173                       # average overall miss latency
system.cpu.dcache.demand_avg_miss_latency::total 80580.252940                       # average overall miss latency
system.cpu.dcache.overall_avg_miss_latency::.switch_cpus.data 80580.637173                       # average overall miss latency
system.cpu.dcache.overall_avg_miss_latency::total 80580.252940                       # average overall miss latency
system.cpu.dcache.blocked_cycles::no_mshrs        35585                       # number of cycles access was blocked
system.cpu.dcache.blocked_cycles::no_targets          994                       # number of cycles access was blocked
system.cpu.dcache.blocked::no_mshrs              1108                       # number of cycles access was blocked
system.cpu.dcache.blocked::no_targets              14                       # number of cycles access was blocked
system.cpu.dcache.avg_blocked_cycles::no_mshrs    32.116426                       # average number of cycles each access was blocked
system.cpu.dcache.avg_blocked_cycles::no_targets           71                       # average number of cycles each access was blocked
system.cpu.dcache.writebacks::.writebacks       399631                       # number of writebacks
system.cpu.dcache.writebacks::total            399631                       # number of writebacks
system.cpu.dcache.demand_mshr_hits::.switch_cpus.data        13707                       # number of demand (read+write) MSHR hits
system.cpu.dcache.demand_mshr_hits::total        13707                       # number of demand (read+write) MSHR hits
system.cpu.dcache.overall_mshr_hits::.switch_cpus.data        13707                       # number of overall MSHR hits
system.cpu.dcache.overall_mshr_hits::total        13707                       # number of overall MSHR hits
system.cpu.dcache.demand_mshr_misses::.switch_cpus.data       405727                       # number of demand (read+write) MSHR misses
system.cpu.dcache.demand_mshr_misses::total       405727                       # number of demand (read+write) MSHR misses
system.cpu.dcache.overall_mshr_misses::.switch_cpus.data       405727                       # number of overall MSHR misses
system.cpu.dcache.overall_mshr_misses::total       405727                       # number of overall MSHR misses
system.cpu.dcache.demand_mshr_miss_latency::.switch_cpus.data  32692344972                       # number of demand (read+write) MSHR miss cycles
system.cpu.dcache.demand_mshr_miss_latency::total  32692344972                       # number of demand (read+write) MSHR miss cycles
system.cpu.dcache.overall_mshr_miss_latency::.switch_cpus.data  32692344972                       # number of overall MSHR miss cycles
system.cpu.dcache.overall_mshr_miss_latency::total  32692344972                       # number of overall MSHR miss cycles
system.cpu.dcache.demand_mshr_miss_rate::.switch_cpus.data     0.073302                       # mshr miss rate for demand accesses
system.cpu.dcache.demand_mshr_miss_rate::total     0.073302                       # mshr miss rate for demand accesses
system.cpu.dcache.overall_mshr_miss_rate::.switch_cpus.data     0.073302                       # mshr miss rate for overall accesses
system.cpu.dcache.overall_mshr_miss_rate::total     0.073302                       # mshr miss rate for overall accesses
system.cpu.dcache.demand_avg_mshr_miss_latency::.switch_cpus.data 80577.198392                       # average overall mshr miss latency
system.cpu.dcache.demand_avg_mshr_miss_latency::total 80577.198392                       # average overall mshr miss latency
system.cpu.dcache.overall_avg_mshr_miss_latency::.switch_cpus.data 80577.198392                       # average overall mshr miss latency
system.cpu.dcache.overall_avg_mshr_miss_latency::total 80577.198392                       # average overall mshr miss latency
system.cpu.dcache.replacements                 405664                       # number of replacements
system.cpu.dcache.ReadReq_hits::.switch_cpus.data      3705067                       # number of ReadReq hits
system.cpu.dcache.ReadReq_hits::total         3705067                       # number of ReadReq hits
system.cpu.dcache.ReadReq_misses::.switch_cpus.data        23150                       # number of ReadReq misses
system.cpu.dcache.ReadReq_misses::total         23150                       # number of ReadReq misses
system.cpu.dcache.ReadReq_miss_latency::.switch_cpus.data   1152195500                       # number of ReadReq miss cycles
system.cpu.dcache.ReadReq_miss_latency::total   1152195500                       # number of ReadReq miss cycles
system.cpu.dcache.ReadReq_accesses::.switch_cpus.data      3728217                       # number of ReadReq accesses(hits+misses)
system.cpu.dcache.ReadReq_accesses::total      3728217                       # number of ReadReq accesses(hits+misses)
system.cpu.dcache.ReadReq_miss_rate::.switch_cpus.data     0.006209                       # miss rate for ReadReq accesses
system.cpu.dcache.ReadReq_miss_rate::total     0.006209                       # miss rate for ReadReq accesses
system.cpu.dcache.ReadReq_avg_miss_latency::.switch_cpus.data 49770.863931                       # average ReadReq miss latency
system.cpu.dcache.ReadReq_avg_miss_latency::total 49770.863931                       # average ReadReq miss latency
system.cpu.dcache.ReadReq_mshr_hits::.switch_cpus.data        13686                       # number of ReadReq MSHR hits
system.cpu.dcache.ReadReq_mshr_hits::total        13686                       # number of ReadReq MSHR hits
system.cpu.dcache.ReadReq_mshr_misses::.switch_cpus.data         9464                       # number of ReadReq MSHR misses
system.cpu.dcache.ReadReq_mshr_misses::total         9464                       # number of ReadReq MSHR misses
system.cpu.dcache.ReadReq_mshr_miss_latency::.switch_cpus.data    443017500                       # number of ReadReq MSHR miss cycles
system.cpu.dcache.ReadReq_mshr_miss_latency::total    443017500                       # number of ReadReq MSHR miss cycles
system.cpu.dcache.ReadReq_mshr_miss_rate::.switch_cpus.data     0.002538                       # mshr miss rate for ReadReq accesses
system.cpu.dcache.ReadReq_mshr_miss_rate::total     0.002538                       # mshr miss rate for ReadReq accesses
system.cpu.dcache.ReadReq_avg_mshr_miss_latency::.switch_cpus.data 46810.809383                       # average ReadReq mshr miss latency
system.cpu.dcache.ReadReq_avg_mshr_miss_latency::total 46810.809383                       # average ReadReq mshr miss latency
system.cpu.dcache.WriteReq_hits::.cpu.data            5                       # number of WriteReq hits
system.cpu.dcache.WriteReq_hits::.switch_cpus.data      1410490                       # number of WriteReq hits
system.cpu.dcache.WriteReq_hits::total        1410495                       # number of WriteReq hits
system.cpu.dcache.WriteReq_misses::.cpu.data            2                       # number of WriteReq misses
system.cpu.dcache.WriteReq_misses::.switch_cpus.data       396284                       # number of WriteReq misses
system.cpu.dcache.WriteReq_misses::total       396286                       # number of WriteReq misses
system.cpu.dcache.WriteReq_miss_latency::.switch_cpus.data  32646063472                       # number of WriteReq miss cycles
system.cpu.dcache.WriteReq_miss_latency::total  32646063472                       # number of WriteReq miss cycles
system.cpu.dcache.WriteReq_accesses::.cpu.data            7                       # number of WriteReq accesses(hits+misses)
system.cpu.dcache.WriteReq_accesses::.switch_cpus.data      1806774                       # number of WriteReq accesses(hits+misses)
system.cpu.dcache.WriteReq_accesses::total      1806781                       # number of WriteReq accesses(hits+misses)
system.cpu.dcache.WriteReq_miss_rate::.cpu.data     0.285714                       # miss rate for WriteReq accesses
system.cpu.dcache.WriteReq_miss_rate::.switch_cpus.data     0.219332                       # miss rate for WriteReq accesses
system.cpu.dcache.WriteReq_miss_rate::total     0.219333                       # miss rate for WriteReq accesses
system.cpu.dcache.WriteReq_avg_miss_latency::.switch_cpus.data 82380.473277                       # average WriteReq miss latency
system.cpu.dcache.WriteReq_avg_miss_latency::total 82380.057514                       # average WriteReq miss latency
system.cpu.dcache.WriteReq_mshr_hits::.switch_cpus.data           21                       # number of WriteReq MSHR hits
system.cpu.dcache.WriteReq_mshr_hits::total           21                       # number of WriteReq MSHR hits
system.cpu.dcache.WriteReq_mshr_misses::.switch_cpus.data       396263                       # number of WriteReq MSHR misses
system.cpu.dcache.WriteReq_mshr_misses::total       396263                       # number of WriteReq MSHR misses
system.cpu.dcache.WriteReq_mshr_miss_latency::.switch_cpus.data  32249327472                       # number of WriteReq MSHR miss cycles
system.cpu.dcache.WriteReq_mshr_miss_latency::total  32249327472                       # number of WriteReq MSHR miss cycles
system.cpu.dcache.WriteReq_mshr_miss_rate::.switch_cpus.data     0.219321                       # mshr miss rate for WriteReq accesses
system.cpu.dcache.WriteReq_mshr_miss_rate::total     0.219320                       # mshr miss rate for WriteReq accesses
system.cpu.dcache.WriteReq_avg_mshr_miss_latency::.switch_cpus.data 81383.645387                       # average WriteReq mshr miss latency
system.cpu.dcache.WriteReq_avg_mshr_miss_latency::total 81383.645387                       # average WriteReq mshr miss latency
system.cpu.dcache.power_state.pwrStateResidencyTicks::UNDEFINED  34892357500                       # Cumulative time (in ticks) in various power states
system.cpu.dcache.tags.tagsinuse            63.995121                       # Cycle average of tags in use
system.cpu.dcache.tags.total_refs             5521291                       # Total number of references to valid blocks.
system.cpu.dcache.tags.sampled_refs            405728                       # Sample count of references to valid blocks.
system.cpu.dcache.tags.avg_refs             13.608356                       # Average number of references to valid blocks.
system.cpu.dcache.tags.warmup_cycle              1500                       # Cycle when the warmup percentage was hit.
system.cpu.dcache.tags.occ_blocks::.cpu.data     0.000407                       # Average occupied blocks per requestor
system.cpu.dcache.tags.occ_blocks::.switch_cpus.data    63.994714                       # Average occupied blocks per requestor
system.cpu.dcache.tags.occ_percent::.cpu.data     0.000006                       # Average percentage of cache occupancy
system.cpu.dcache.tags.occ_percent::.switch_cpus.data     0.999917                       # Average percentage of cache occupancy
system.cpu.dcache.tags.occ_percent::total     0.999924                       # Average percentage of cache occupancy
system.cpu.dcache.tags.occ_task_id_blocks::1024           64                       # Occupied blocks per task id
system.cpu.dcache.tags.age_task_id_blocks_1024::0           63                       # Occupied blocks per task id
system.cpu.dcache.tags.age_task_id_blocks_1024::3            1                       # Occupied blocks per task id
system.cpu.dcache.tags.occ_task_id_percent::1024            1                       # Percentage of cache occupancy per task id
system.cpu.dcache.tags.tag_accesses          11475724                       # Number of tag accesses
system.cpu.dcache.tags.data_accesses         11475724                       # Number of data accesses
system.cpu.dcache.tags.power_state.pwrStateResidencyTicks::UNDEFINED  34892357500                       # Cumulative time (in ticks) in various power states
system.cpu.power_state.numTransitions               1                       # Number of power state transitions
system.cpu.power_state.pwrStateResidencyTicks::ON        10500                       # Cumulative time (in ticks) in various power states
system.cpu.power_state.pwrStateResidencyTicks::OFF  34892347000                       # Cumulative time (in ticks) in various power states

---------- End Simulation Statistics   ----------
