
---------- Begin Simulation Statistics ----------
final_tick                                14036732000                       # Number of ticks from beginning of simulation (restored from checkpoints and never reset)
host_inst_rate                                  89939                       # Simulator instruction rate (inst/s)
host_mem_usage                                 998276                       # Number of bytes of host memory used
host_op_rate                                   154279                       # Simulator op (including micro ops) rate (op/s)
host_seconds                                   111.19                       # Real time elapsed on the host
host_tick_rate                              126244154                       # Simulator tick rate (ticks/s)
sim_freq                                 1000000000000                       # Frequency of simulated ticks
sim_insts                                    10000011                       # Number of instructions simulated
sim_ops                                      17153812                       # Number of ops (including micro ops) simulated
sim_seconds                                  0.014037                       # Number of seconds simulated
sim_ticks                                 14036732000                       # Number of ticks simulated
system.cpu.Branches                                 1                       # Number of branches fetched
system.cpu.committedInsts                          10                       # Number of instructions committed
system.cpu.committedOps                            21                       # Number of ops (including micro ops) committed
system.cpu.dtb.rdAccesses                           0                       # TLB accesses on read requests
system.cpu.dtb.rdMisses                             0                       # TLB misses on read requests
system.cpu.dtb.wrAccesses                           7                       # TLB accesses on write requests
system.cpu.dtb.wrMisses                             1                       # TLB misses on write requests
system.cpu.idle_fraction                            0                       # Percentage of idle cycles
system.cpu.itb.rdAccesses                           0                       # TLB accesses on read requests
system.cpu.itb.rdMisses                             0                       # TLB misses on read requests
system.cpu.itb.wrAccesses                          10                       # TLB accesses on write requests
system.cpu.itb.wrMisses                             0                       # TLB misses on write requests
system.cpu.not_idle_fraction                        1                       # Percentage of non-idle cycles
system.cpu.numCycles                               21                       # number of cpu cycles simulated
system.cpu.numWorkItemsCompleted                    0                       # number of work items this cpu completed
system.cpu.numWorkItemsStarted                      0                       # number of work items this cpu started
system.cpu.num_busy_cycles                         21                       # Number of busy cycles
system.cpu.num_cc_register_writes                   2                       # number of times the CC registers were written
system.cpu.num_conditional_control_insts            0                       # number of instructions that are conditional controls
system.cpu.num_fp_alu_accesses                      0                       # Number of float alu accesses
system.cpu.num_fp_insts                             0                       # number of float instructions
system.cpu.num_fp_register_reads                    0                       # number of times the floating registers were read
system.cpu.num_fp_register_writes                   0                       # number of times the floating registers were written
system.cpu.num_func_calls                           1                       # number of times a function call or return occured
system.cpu.num_idle_cycles                          0                       # Number of idle cycles
system.cpu.num_int_alu_accesses                    21                       # Number of integer alu accesses
system.cpu.num_int_insts                           21                       # number of integer instructions
system.cpu.num_int_register_reads                  47                       # number of times the integer registers were read
system.cpu.num_int_register_writes                 13                       # number of times the integer registers were written
system.cpu.num_load_insts                           0                       # Number of load instructions
system.cpu.num_mem_refs                             7                       # number of memory refs
system.cpu.num_store_insts                          7                       # Number of store instructions
system.cpu.num_vec_alu_accesses                     0                       # Number of vector alu accesses
system.cpu.num_vec_insts                            0                       # number of vector instructions
system.cpu.num_vec_register_reads                   0                       # number of times the vector registers were read
system.cpu.num_vec_register_writes                  0                       # number of times the vector registers were written
system.cpu.op_class::No_OpClass                     0      0.00%      0.00% # Class of executed instruction
system.cpu.op_class::IntAlu                        14     66.67%     66.67% # Class of executed instruction
system.cpu.op_class::IntMult                        0      0.00%     66.67% # Class of executed instruction
system.cpu.op_class::IntDiv                         0      0.00%     66.67% # Class of executed instruction
system.cpu.op_class::FloatAdd                       0      0.00%     66.67% # Class of executed instruction
system.cpu.op_class::FloatCmp                       0      0.00%     66.67% # Class of executed instruction
system.cpu.op_class::FloatCvt                       0      0.00%     66.67% # Class of executed instruction
system.cpu.op_class::FloatMult                      0      0.00%     66.67% # Class of executed instruction
system.cpu.op_class::FloatMultAcc                   0      0.00%     66.67% # Class of executed instruction
system.cpu.op_class::FloatDiv                       0      0.00%     66.67% # Class of executed instruction
system.cpu.op_class::FloatMisc                      0      0.00%     66.67% # Class of executed instruction
system.cpu.op_class::FloatSqrt                      0      0.00%     66.67% # Class of executed instruction
system.cpu.op_class::SimdAdd                        0      0.00%     66.67% # Class of executed instruction
system.cpu.op_class::SimdAddAcc                     0      0.00%     66.67% # Class of executed instruction
system.cpu.op_class::SimdAlu                        0      0.00%     66.67% # Class of executed instruction
system.cpu.op_class::SimdCmp                        0      0.00%     66.67% # Class of executed instruction
system.cpu.op_class::SimdCvt                        0      0.00%     66.67% # Class of executed instruction
system.cpu.op_class::SimdMisc                       0      0.00%     66.67% # Class of executed instruction
system.cpu.op_class::SimdMult                       0      0.00%     66.67% # Class of executed instruction
system.cpu.op_class::SimdMultAcc                    0      0.00%     66.67% # Class of executed instruction
system.cpu.op_class::SimdShift                      0      0.00%     66.67% # Class of executed instruction
system.cpu.op_class::SimdShiftAcc                   0      0.00%     66.67% # Class of executed instruction
system.cpu.op_class::SimdDiv                        0      0.00%     66.67% # Class of executed instruction
system.cpu.op_class::SimdSqrt                       0      0.00%     66.67% # Class of executed instruction
system.cpu.op_class::SimdFloatAdd                   0      0.00%     66.67% # Class of executed instruction
system.cpu.op_class::SimdFloatAlu                   0      0.00%     66.67% # Class of executed instruction
system.cpu.op_class::SimdFloatCmp                   0      0.00%     66.67% # Class of executed instruction
system.cpu.op_class::SimdFloatCvt                   0      0.00%     66.67% # Class of executed instruction
system.cpu.op_class::SimdFloatDiv                   0      0.00%     66.67% # Class of executed instruction
system.cpu.op_class::SimdFloatMisc                  0      0.00%     66.67% # Class of executed instruction
system.cpu.op_class::SimdFloatMult                  0      0.00%     66.67% # Class of executed instruction
system.cpu.op_class::SimdFloatMultAcc               0      0.00%     66.67% # Class of executed instruction
system.cpu.op_class::SimdFloatSqrt                  0      0.00%     66.67% # Class of executed instruction
system.cpu.op_class::SimdReduceAdd                  0      0.00%     66.67% # Class of executed instruction
system.cpu.op_class::SimdReduceAlu                  0      0.00%     66.67% # Class of executed instruction
system.cpu.op_class::SimdReduceCmp                  0      0.00%     66.67% # Class of executed instruction
system.cpu.op_class::SimdFloatReduceAdd             0      0.00%     66.67% # Class of executed instruction
system.cpu.op_class::SimdFloatReduceCmp             0      0.00%     66.67% # Class of executed instruction
system.cpu.op_class::SimdAes                        0      0.00%     66.67% # Class of executed instruction
system.cpu.op_class::SimdAesMix                     0      0.00%     66.67% # Class of executed instruction
system.cpu.op_class::SimdSha1Hash                   0      0.00%     66.67% # Class of executed instruction
system.cpu.op_class::SimdSha1Hash2                  0      0.00%     66.67% # Class of executed instruction
system.cpu.op_class::SimdSha256Hash                 0      0.00%     66.67% # Class of executed instruction
system.cpu.op_class::SimdSha256Hash2                0      0.00%     66.67% # Class of executed instruction
system.cpu.op_class::SimdShaSigma2                  0      0.00%     66.67% # Class of executed instruction
system.cpu.op_class::SimdShaSigma3                  0      0.00%     66.67% # Class of executed instruction
system.cpu.op_class::SimdPredAlu                    0      0.00%     66.67% # Class of executed instruction
system.cpu.op_class::MemRead                        0      0.00%     66.67% # Class of executed instruction
system.cpu.op_class::MemWrite                       7     33.33%    100.00% # Class of executed instruction
system.cpu.op_class::FloatMemRead                   0      0.00%    100.00% # Class of executed instruction
system.cpu.op_class::FloatMemWrite                  0      0.00%    100.00% # Class of executed instruction
system.cpu.op_class::IprAccess                      0      0.00%    100.00% # Class of executed instruction
system.cpu.op_class::InstPrefetch                   0      0.00%    100.00% # Class of executed instruction
system.cpu.op_class::total                         21                       # Class of executed instruction
system.cpu.workload.numSyscalls                   154                       # Number of system calls
system.membus.snoop_filter.hit_multi_requests            0                       # Number of requests hitting in the snoop filter with multiple (>1) holders of the requested data.
system.membus.snoop_filter.hit_multi_snoops            0                       # Number of snoops hitting in the snoop filter with multiple (>1) holders of the requested data.
system.membus.snoop_filter.hit_single_requests       157453                       # Number of requests hitting in the snoop filter with a single holder of the requested data.
system.membus.snoop_filter.hit_single_snoops            0                       # Number of snoops hitting in the snoop filter with a single holder of the requested data.
system.membus.snoop_filter.tot_requests        315216                       # Total number of requests made to the snoop filter.
system.membus.snoop_filter.tot_snoops               0                       # Total number of snoops made to the snoop filter.
system.switch_cpus.branchPred.BTBCorrect            0                       # Number of correct BTB predictions (this stat may not work properly.
system.switch_cpus.branchPred.BTBHitPct           nan                       # BTB Hit Percentage
system.switch_cpus.branchPred.BTBHits               0                       # Number of BTB hits
system.switch_cpus.branchPred.BTBLookups            0                       # Number of BTB lookups
system.switch_cpus.branchPred.RASInCorrect           68                       # Number of incorrect RAS predictions.
system.switch_cpus.branchPred.condIncorrect       116024                       # Number of conditional branches incorrect
system.switch_cpus.branchPred.condPredicted      1954350                       # Number of conditional branches predicted
system.switch_cpus.branchPred.indirectHits      1057881                       # Number of indirect target hits.
system.switch_cpus.branchPred.indirectLookups      1351164                       # Number of indirect predictor lookups.
system.switch_cpus.branchPred.indirectMisses       293283                       # Number of indirect misses.
system.switch_cpus.branchPred.lookups         2252952                       # Number of BP lookups
system.switch_cpus.branchPred.usedRAS          132176                       # Number of times the RAS was used to get a target.
system.switch_cpus.branchPredindirectMispredicted        74715                       # Number of mispredicted indirect branches.
system.switch_cpus.cc_regfile_reads           8907597                       # number of cc regfile reads
system.switch_cpus.cc_regfile_writes          7275881                       # number of cc regfile writes
system.switch_cpus.commit.amos                      0                       # Number of atomic instructions committed
system.switch_cpus.commit.branchMispredicts       116642                       # The number of times a branch was mispredicted
system.switch_cpus.commit.branches            1513822                       # Number of branches committed
system.switch_cpus.commit.bw_lim_events       1237649                       # number cycles where commit BW limit reached
system.switch_cpus.commit.commitNonSpecStalls          412                       # The number of times commit has been forced to stall to communicate backwards
system.switch_cpus.commit.commitSquashedInsts      4555468                       # The number of squashed insts skipped by commit
system.switch_cpus.commit.committedInsts     10000001                       # Number of instructions committed
system.switch_cpus.commit.committedOps       17153791                       # Number of ops (including micro ops) committed
system.switch_cpus.commit.committed_per_cycle::samples     25902194                       # Number of insts commited each cycle
system.switch_cpus.commit.committed_per_cycle::mean     0.662252                       # Number of insts commited each cycle
system.switch_cpus.commit.committed_per_cycle::stdev     1.881550                       # Number of insts commited each cycle
system.switch_cpus.commit.committed_per_cycle::underflows            0      0.00%      0.00% # Number of insts commited each cycle
system.switch_cpus.commit.committed_per_cycle::0     21417721     82.69%     82.69% # Number of insts commited each cycle
system.switch_cpus.commit.committed_per_cycle::1      1509746      5.83%     88.52% # Number of insts commited each cycle
system.switch_cpus.commit.committed_per_cycle::2       530105      2.05%     90.56% # Number of insts commited each cycle
system.switch_cpus.commit.committed_per_cycle::3       731014      2.82%     93.38% # Number of insts commited each cycle
system.switch_cpus.commit.committed_per_cycle::4       168132      0.65%     94.03% # Number of insts commited each cycle
system.switch_cpus.commit.committed_per_cycle::5       128882      0.50%     94.53% # Number of insts commited each cycle
system.switch_cpus.commit.committed_per_cycle::6        79952      0.31%     94.84% # Number of insts commited each cycle
system.switch_cpus.commit.committed_per_cycle::7        98993      0.38%     95.22% # Number of insts commited each cycle
system.switch_cpus.commit.committed_per_cycle::8      1237649      4.78%    100.00% # Number of insts commited each cycle
system.switch_cpus.commit.committed_per_cycle::overflows            0      0.00%    100.00% # Number of insts commited each cycle
system.switch_cpus.commit.committed_per_cycle::min_value            0                       # Number of insts commited each cycle
system.switch_cpus.commit.committed_per_cycle::max_value            8                       # Number of insts commited each cycle
system.switch_cpus.commit.committed_per_cycle::total     25902194                       # Number of insts commited each cycle
system.switch_cpus.commit.fp_insts             617512                       # Number of committed floating point instructions.
system.switch_cpus.commit.function_calls        77091                       # Number of function calls committed.
system.switch_cpus.commit.int_insts          17055072                       # Number of committed integer instructions.
system.switch_cpus.commit.loads               2693142                       # Number of loads committed
system.switch_cpus.commit.membars                  40                       # Number of memory barriers committed
system.switch_cpus.commit.op_class_0::No_OpClass        45637      0.27%      0.27% # Class of committed instruction
system.switch_cpus.commit.op_class_0::IntAlu     12485084     72.78%     73.05% # Class of committed instruction
system.switch_cpus.commit.op_class_0::IntMult       122449      0.71%     73.76% # Class of committed instruction
system.switch_cpus.commit.op_class_0::IntDiv        23184      0.14%     73.90% # Class of committed instruction
system.switch_cpus.commit.op_class_0::FloatAdd         6253      0.04%     73.93% # Class of committed instruction
system.switch_cpus.commit.op_class_0::FloatCmp            0      0.00%     73.93% # Class of committed instruction
system.switch_cpus.commit.op_class_0::FloatCvt          352      0.00%     73.94% # Class of committed instruction
system.switch_cpus.commit.op_class_0::FloatMult            0      0.00%     73.94% # Class of committed instruction
system.switch_cpus.commit.op_class_0::FloatMultAcc            0      0.00%     73.94% # Class of committed instruction
system.switch_cpus.commit.op_class_0::FloatDiv            0      0.00%     73.94% # Class of committed instruction
system.switch_cpus.commit.op_class_0::FloatMisc            0      0.00%     73.94% # Class of committed instruction
system.switch_cpus.commit.op_class_0::FloatSqrt            0      0.00%     73.94% # Class of committed instruction
system.switch_cpus.commit.op_class_0::SimdAdd            0      0.00%     73.94% # Class of committed instruction
system.switch_cpus.commit.op_class_0::SimdAddAcc            0      0.00%     73.94% # Class of committed instruction
system.switch_cpus.commit.op_class_0::SimdAlu           36      0.00%     73.94% # Class of committed instruction
system.switch_cpus.commit.op_class_0::SimdCmp            0      0.00%     73.94% # Class of committed instruction
system.switch_cpus.commit.op_class_0::SimdCvt           44      0.00%     73.94% # Class of committed instruction
system.switch_cpus.commit.op_class_0::SimdMisc        22287      0.13%     74.07% # Class of committed instruction
system.switch_cpus.commit.op_class_0::SimdMult            0      0.00%     74.07% # Class of committed instruction
system.switch_cpus.commit.op_class_0::SimdMultAcc            0      0.00%     74.07% # Class of committed instruction
system.switch_cpus.commit.op_class_0::SimdShift            0      0.00%     74.07% # Class of committed instruction
system.switch_cpus.commit.op_class_0::SimdShiftAcc            0      0.00%     74.07% # Class of committed instruction
system.switch_cpus.commit.op_class_0::SimdDiv            0      0.00%     74.07% # Class of committed instruction
system.switch_cpus.commit.op_class_0::SimdSqrt            0      0.00%     74.07% # Class of committed instruction
system.switch_cpus.commit.op_class_0::SimdFloatAdd        12150      0.07%     74.14% # Class of committed instruction
system.switch_cpus.commit.op_class_0::SimdFloatAlu            0      0.00%     74.14% # Class of committed instruction
system.switch_cpus.commit.op_class_0::SimdFloatCmp            1      0.00%     74.14% # Class of committed instruction
system.switch_cpus.commit.op_class_0::SimdFloatCvt        30280      0.18%     74.31% # Class of committed instruction
system.switch_cpus.commit.op_class_0::SimdFloatDiv         2027      0.01%     74.33% # Class of committed instruction
system.switch_cpus.commit.op_class_0::SimdFloatMisc            0      0.00%     74.33% # Class of committed instruction
system.switch_cpus.commit.op_class_0::SimdFloatMult           29      0.00%     74.33% # Class of committed instruction
system.switch_cpus.commit.op_class_0::SimdFloatMultAcc            0      0.00%     74.33% # Class of committed instruction
system.switch_cpus.commit.op_class_0::SimdFloatSqrt            0      0.00%     74.33% # Class of committed instruction
system.switch_cpus.commit.op_class_0::SimdReduceAdd            0      0.00%     74.33% # Class of committed instruction
system.switch_cpus.commit.op_class_0::SimdReduceAlu            0      0.00%     74.33% # Class of committed instruction
system.switch_cpus.commit.op_class_0::SimdReduceCmp            0      0.00%     74.33% # Class of committed instruction
system.switch_cpus.commit.op_class_0::SimdFloatReduceAdd            0      0.00%     74.33% # Class of committed instruction
system.switch_cpus.commit.op_class_0::SimdFloatReduceCmp            0      0.00%     74.33% # Class of committed instruction
system.switch_cpus.commit.op_class_0::SimdAes            0      0.00%     74.33% # Class of committed instruction
system.switch_cpus.commit.op_class_0::SimdAesMix            0      0.00%     74.33% # Class of committed instruction
system.switch_cpus.commit.op_class_0::SimdSha1Hash            0      0.00%     74.33% # Class of committed instruction
system.switch_cpus.commit.op_class_0::SimdSha1Hash2            0      0.00%     74.33% # Class of committed instruction
system.switch_cpus.commit.op_class_0::SimdSha256Hash            0      0.00%     74.33% # Class of committed instruction
system.switch_cpus.commit.op_class_0::SimdSha256Hash2            0      0.00%     74.33% # Class of committed instruction
system.switch_cpus.commit.op_class_0::SimdShaSigma2            0      0.00%     74.33% # Class of committed instruction
system.switch_cpus.commit.op_class_0::SimdShaSigma3            0      0.00%     74.33% # Class of committed instruction
system.switch_cpus.commit.op_class_0::SimdPredAlu            0      0.00%     74.33% # Class of committed instruction
system.switch_cpus.commit.op_class_0::MemRead      2676228     15.60%     89.93% # Class of committed instruction
system.switch_cpus.commit.op_class_0::MemWrite      1185797      6.91%     96.84% # Class of committed instruction
system.switch_cpus.commit.op_class_0::FloatMemRead        16914      0.10%     96.94% # Class of committed instruction
system.switch_cpus.commit.op_class_0::FloatMemWrite       525039      3.06%    100.00% # Class of committed instruction
system.switch_cpus.commit.op_class_0::IprAccess            0      0.00%    100.00% # Class of committed instruction
system.switch_cpus.commit.op_class_0::InstPrefetch            0      0.00%    100.00% # Class of committed instruction
system.switch_cpus.commit.op_class_0::total     17153791                       # Class of committed instruction
system.switch_cpus.commit.refs                4403978                       # Number of memory references committed
system.switch_cpus.commit.swp_count                 0                       # Number of s/w prefetches committed
system.switch_cpus.commit.vec_insts                 0                       # Number of committed Vector instructions.
system.switch_cpus.committedInsts            10000001                       # Number of Instructions Simulated
system.switch_cpus.committedOps              17153791                       # Number of Ops (including micro ops) Simulated
system.switch_cpus.cpi                       2.807344                       # CPI: Cycles Per Instruction
system.switch_cpus.cpi_total                 2.807344                       # CPI: Total CPI of All Threads
system.switch_cpus.decode.BlockedCycles      17925863                       # Number of cycles decode is blocked
system.switch_cpus.decode.DecodedInsts       23023343                       # Number of instructions handled by decode
system.switch_cpus.decode.IdleCycles          5142793                       # Number of cycles decode is idle
system.switch_cpus.decode.RunCycles           2980558                       # Number of cycles decode is running
system.switch_cpus.decode.SquashCycles         119338                       # Number of cycles decode is squashing
system.switch_cpus.decode.UnblockCycles        430697                       # Number of cycles decode is unblocking
system.switch_cpus.dtb.rdAccesses             3185183                       # TLB accesses on read requests
system.switch_cpus.dtb.rdMisses                  5870                       # TLB misses on read requests
system.switch_cpus.dtb.wrAccesses             1913185                       # TLB accesses on write requests
system.switch_cpus.dtb.wrMisses                 37487                       # TLB misses on write requests
system.switch_cpus.fetch.Branches             2252952                       # Number of branches that fetch encountered
system.switch_cpus.fetch.CacheLines           1281713                       # Number of cache lines fetched
system.switch_cpus.fetch.Cycles              20713992                       # Number of cycles fetch has run and was not squashing or blocked
system.switch_cpus.fetch.IcacheSquashes         46977                       # Number of outstanding Icache misses that were squashed
system.switch_cpus.fetch.IcacheWaitRetryStallCycles          365                       # Number of stall cycles due to full MSHR
system.switch_cpus.fetch.Insts               13639539                       # Number of instructions fetch has processed
system.switch_cpus.fetch.MiscStallCycles          701                       # Number of cycles fetch has spent waiting on interrupts, or bad addresses, or out of MSHRs
system.switch_cpus.fetch.PendingQuiesceStallCycles            7                       # Number of stall cycles due to pending quiesce instructions
system.switch_cpus.fetch.PendingTrapStallCycles         4351                       # Number of stall cycles due to pending traps
system.switch_cpus.fetch.SquashCycles          238676                       # Number of cycles fetch has spent squashing
system.switch_cpus.fetch.branchRate          0.080252                       # Number of branch fetches per cycle
system.switch_cpus.fetch.icacheStallCycles      5760497                       # Number of cycles fetch is stalled on an Icache miss
system.switch_cpus.fetch.predictedBranches      1190057                       # Number of branches that fetch has predicted taken
system.switch_cpus.fetch.rate                0.485852                       # Number of inst fetches per cycle
system.switch_cpus.fetch.rateDist::samples     26599251                       # Number of instructions fetched each cycle (Total)
system.switch_cpus.fetch.rateDist::mean      0.907763                       # Number of instructions fetched each cycle (Total)
system.switch_cpus.fetch.rateDist::stdev     2.384316                       # Number of instructions fetched each cycle (Total)
system.switch_cpus.fetch.rateDist::underflows            0      0.00%      0.00% # Number of instructions fetched each cycle (Total)
system.switch_cpus.fetch.rateDist::0         22651738     85.16%     85.16% # Number of instructions fetched each cycle (Total)
system.switch_cpus.fetch.rateDist::1           381509      1.43%     86.59% # Number of instructions fetched each cycle (Total)
system.switch_cpus.fetch.rateDist::2           209764      0.79%     87.38% # Number of instructions fetched each cycle (Total)
system.switch_cpus.fetch.rateDist::3           210323      0.79%     88.17% # Number of instructions fetched each cycle (Total)
system.switch_cpus.fetch.rateDist::4           327892      1.23%     89.41% # Number of instructions fetched each cycle (Total)
system.switch_cpus.fetch.rateDist::5           189784      0.71%     90.12% # Number of instructions fetched each cycle (Total)
system.switch_cpus.fetch.rateDist::6           205775      0.77%     90.89% # Number of instructions fetched each cycle (Total)
system.switch_cpus.fetch.rateDist::7           161044      0.61%     91.50% # Number of instructions fetched each cycle (Total)
system.switch_cpus.fetch.rateDist::8          2261422      8.50%    100.00% # Number of instructions fetched each cycle (Total)
system.switch_cpus.fetch.rateDist::overflows            0      0.00%    100.00% # Number of instructions fetched each cycle (Total)
system.switch_cpus.fetch.rateDist::min_value            0                       # Number of instructions fetched each cycle (Total)
system.switch_cpus.fetch.rateDist::max_value            8                       # Number of instructions fetched each cycle (Total)
system.switch_cpus.fetch.rateDist::total     26599251                       # Number of instructions fetched each cycle (Total)
system.switch_cpus.fp_regfile_reads            703296                       # number of floating regfile reads
system.switch_cpus.fp_regfile_writes            96609                       # number of floating regfile writes
system.switch_cpus.idleCycles                 1474192                       # Total number of cycles that the CPU has spent unscheduled due to idling
system.switch_cpus.iew.branchMispredicts       145680                       # Number of branch mispredicts detected at execute
system.switch_cpus.iew.exec_branches          1733804                       # Number of branches executed
system.switch_cpus.iew.exec_nop                     0                       # number of nop insts executed
system.switch_cpus.iew.exec_rate             0.720187                       # Inst execution rate
system.switch_cpus.iew.exec_refs              5126211                       # number of memory reference insts executed
system.switch_cpus.iew.exec_stores            1913166                       # Number of stores executed
system.switch_cpus.iew.exec_swp                     0                       # number of swp insts executed
system.switch_cpus.iew.iewBlockCycles         1499148                       # Number of cycles IEW is blocking
system.switch_cpus.iew.iewDispLoadInsts       3406382                       # Number of dispatched load instructions
system.switch_cpus.iew.iewDispNonSpecInsts         5733                       # Number of dispatched non-speculative instructions
system.switch_cpus.iew.iewDispSquashedInsts         8354                       # Number of squashed instructions skipped by dispatch
system.switch_cpus.iew.iewDispStoreInsts      2030796                       # Number of dispatched store instructions
system.switch_cpus.iew.iewDispatchedInsts     21747349                       # Number of instructions dispatched to IQ
system.switch_cpus.iew.iewExecLoadInsts       3213045                       # Number of load instructions executed
system.switch_cpus.iew.iewExecSquashedInsts       216473                       # Number of squashed instructions skipped in execute
system.switch_cpus.iew.iewExecutedInsts      20218123                       # Number of executed instructions
system.switch_cpus.iew.iewIQFullEvents          14104                       # Number of times the IQ has become full, causing a stall
system.switch_cpus.iew.iewIdleCycles                0                       # Number of cycles IEW is idle
system.switch_cpus.iew.iewLSQFullEvents       6134919                       # Number of times the LSQ has become full, causing a stall
system.switch_cpus.iew.iewSquashCycles         119338                       # Number of cycles IEW is squashing
system.switch_cpus.iew.iewUnblockCycles       6157024                       # Number of cycles IEW is unblocking
system.switch_cpus.iew.lsq.thread0.blockedLoads            0                       # Number of blocked loads due to partial load-store forwarding
system.switch_cpus.iew.lsq.thread0.cacheBlocked         6806                       # Number of times an access to memory failed due to the cache being blocked
system.switch_cpus.iew.lsq.thread0.forwLoads       229526                       # Number of loads that had data forwarded from stores
system.switch_cpus.iew.lsq.thread0.ignoredResponses          947                       # Number of memory responses ignored because the instruction is squashed
system.switch_cpus.iew.lsq.thread0.invAddrLoads            0                       # Number of loads ignored due to an invalid address
system.switch_cpus.iew.lsq.thread0.invAddrSwpfs            0                       # Number of software prefetches ignored due to an invalid address
system.switch_cpus.iew.lsq.thread0.memOrderViolation          465                       # Number of memory ordering violations
system.switch_cpus.iew.lsq.thread0.rescheduledLoads          448                       # Number of loads that were rescheduled
system.switch_cpus.iew.lsq.thread0.squashedLoads       713236                       # Number of loads squashed
system.switch_cpus.iew.lsq.thread0.squashedStores       319952                       # Number of stores squashed
system.switch_cpus.iew.memOrderViolationEvents          465                       # Number of memory order violations
system.switch_cpus.iew.predictedNotTakenIncorrect       128811                       # Number of branches that were predicted not taken incorrectly
system.switch_cpus.iew.predictedTakenIncorrect        16869                       # Number of branches that were predicted taken incorrectly
system.switch_cpus.iew.wb_consumers          23871464                       # num instructions consuming a value
system.switch_cpus.iew.wb_count              20041784                       # cumulative count of insts written-back
system.switch_cpus.iew.wb_fanout             0.623859                       # average fanout of values written-back
system.switch_cpus.iew.wb_producers          14892418                       # num instructions producing a value
system.switch_cpus.iew.wb_rate               0.713905                       # insts written-back per cycle
system.switch_cpus.iew.wb_sent               20115449                       # cumulative count of insts sent to commit
system.switch_cpus.int_regfile_reads         32457080                       # number of integer regfile reads
system.switch_cpus.int_regfile_writes        16520242                       # number of integer regfile writes
system.switch_cpus.ipc                       0.356209                       # IPC: Instructions Per Cycle
system.switch_cpus.ipc_total                 0.356209                       # IPC: Total IPC of All Threads
system.switch_cpus.iq.FU_type_0::No_OpClass        74607      0.37%      0.37% # Type of FU issued
system.switch_cpus.iq.FU_type_0::IntAlu      14885448     72.84%     73.21% # Type of FU issued
system.switch_cpus.iq.FU_type_0::IntMult       162800      0.80%     74.01% # Type of FU issued
system.switch_cpus.iq.FU_type_0::IntDiv         24871      0.12%     74.13% # Type of FU issued
system.switch_cpus.iq.FU_type_0::FloatAdd         9429      0.05%     74.17% # Type of FU issued
system.switch_cpus.iq.FU_type_0::FloatCmp            0      0.00%     74.17% # Type of FU issued
system.switch_cpus.iq.FU_type_0::FloatCvt          642      0.00%     74.18% # Type of FU issued
system.switch_cpus.iq.FU_type_0::FloatMult            0      0.00%     74.18% # Type of FU issued
system.switch_cpus.iq.FU_type_0::FloatMultAcc            0      0.00%     74.18% # Type of FU issued
system.switch_cpus.iq.FU_type_0::FloatDiv            0      0.00%     74.18% # Type of FU issued
system.switch_cpus.iq.FU_type_0::FloatMisc            0      0.00%     74.18% # Type of FU issued
system.switch_cpus.iq.FU_type_0::FloatSqrt            0      0.00%     74.18% # Type of FU issued
system.switch_cpus.iq.FU_type_0::SimdAdd            0      0.00%     74.18% # Type of FU issued
system.switch_cpus.iq.FU_type_0::SimdAddAcc            0      0.00%     74.18% # Type of FU issued
system.switch_cpus.iq.FU_type_0::SimdAlu           70      0.00%     74.18% # Type of FU issued
system.switch_cpus.iq.FU_type_0::SimdCmp            0      0.00%     74.18% # Type of FU issued
system.switch_cpus.iq.FU_type_0::SimdCvt           52      0.00%     74.18% # Type of FU issued
system.switch_cpus.iq.FU_type_0::SimdMisc        23683      0.12%     74.29% # Type of FU issued
system.switch_cpus.iq.FU_type_0::SimdMult            0      0.00%     74.29% # Type of FU issued
system.switch_cpus.iq.FU_type_0::SimdMultAcc            0      0.00%     74.29% # Type of FU issued
system.switch_cpus.iq.FU_type_0::SimdShift            0      0.00%     74.29% # Type of FU issued
system.switch_cpus.iq.FU_type_0::SimdShiftAcc            0      0.00%     74.29% # Type of FU issued
system.switch_cpus.iq.FU_type_0::SimdDiv            0      0.00%     74.29% # Type of FU issued
system.switch_cpus.iq.FU_type_0::SimdSqrt            0      0.00%     74.29% # Type of FU issued
system.switch_cpus.iq.FU_type_0::SimdFloatAdd        13035      0.06%     74.36% # Type of FU issued
system.switch_cpus.iq.FU_type_0::SimdFloatAlu            0      0.00%     74.36% # Type of FU issued
system.switch_cpus.iq.FU_type_0::SimdFloatCmp            1      0.00%     74.36% # Type of FU issued
system.switch_cpus.iq.FU_type_0::SimdFloatCvt        33931      0.17%     74.52% # Type of FU issued
system.switch_cpus.iq.FU_type_0::SimdFloatDiv         2534      0.01%     74.54% # Type of FU issued
system.switch_cpus.iq.FU_type_0::SimdFloatMisc            0      0.00%     74.54% # Type of FU issued
system.switch_cpus.iq.FU_type_0::SimdFloatMult           37      0.00%     74.54% # Type of FU issued
system.switch_cpus.iq.FU_type_0::SimdFloatMultAcc            0      0.00%     74.54% # Type of FU issued
system.switch_cpus.iq.FU_type_0::SimdFloatSqrt            0      0.00%     74.54% # Type of FU issued
system.switch_cpus.iq.FU_type_0::SimdReduceAdd            0      0.00%     74.54% # Type of FU issued
system.switch_cpus.iq.FU_type_0::SimdReduceAlu            0      0.00%     74.54% # Type of FU issued
system.switch_cpus.iq.FU_type_0::SimdReduceCmp            0      0.00%     74.54% # Type of FU issued
system.switch_cpus.iq.FU_type_0::SimdFloatReduceAdd            0      0.00%     74.54% # Type of FU issued
system.switch_cpus.iq.FU_type_0::SimdFloatReduceCmp            0      0.00%     74.54% # Type of FU issued
system.switch_cpus.iq.FU_type_0::SimdAes            0      0.00%     74.54% # Type of FU issued
system.switch_cpus.iq.FU_type_0::SimdAesMix            0      0.00%     74.54% # Type of FU issued
system.switch_cpus.iq.FU_type_0::SimdSha1Hash            0      0.00%     74.54% # Type of FU issued
system.switch_cpus.iq.FU_type_0::SimdSha1Hash2            0      0.00%     74.54% # Type of FU issued
system.switch_cpus.iq.FU_type_0::SimdSha256Hash            0      0.00%     74.54% # Type of FU issued
system.switch_cpus.iq.FU_type_0::SimdSha256Hash2            0      0.00%     74.54% # Type of FU issued
system.switch_cpus.iq.FU_type_0::SimdShaSigma2            0      0.00%     74.54% # Type of FU issued
system.switch_cpus.iq.FU_type_0::SimdShaSigma3            0      0.00%     74.54% # Type of FU issued
system.switch_cpus.iq.FU_type_0::SimdPredAlu            0      0.00%     74.54% # Type of FU issued
system.switch_cpus.iq.FU_type_0::MemRead      3240458     15.86%     90.39% # Type of FU issued
system.switch_cpus.iq.FU_type_0::MemWrite      1378061      6.74%     97.14% # Type of FU issued
system.switch_cpus.iq.FU_type_0::FloatMemRead        26133      0.13%     97.27% # Type of FU issued
system.switch_cpus.iq.FU_type_0::FloatMemWrite       558805      2.73%    100.00% # Type of FU issued
system.switch_cpus.iq.FU_type_0::IprAccess            0      0.00%    100.00% # Type of FU issued
system.switch_cpus.iq.FU_type_0::InstPrefetch            0      0.00%    100.00% # Type of FU issued
system.switch_cpus.iq.FU_type_0::total       20434597                       # Type of FU issued
system.switch_cpus.iq.fp_alu_accesses          673177                       # Number of floating point alu accesses
system.switch_cpus.iq.fp_inst_queue_reads      1344152                       # Number of floating instruction queue reads
system.switch_cpus.iq.fp_inst_queue_wakeup_accesses       637124                       # Number of floating instruction queue wakeup accesses
system.switch_cpus.iq.fp_inst_queue_writes       790894                       # Number of floating instruction queue writes
system.switch_cpus.iq.fu_busy_cnt              310431                       # FU busy when requested
system.switch_cpus.iq.fu_busy_rate           0.015191                       # FU busy rate (busy events/executed inst)
system.switch_cpus.iq.fu_full::No_OpClass            0      0.00%      0.00% # attempts to use FU when none available
system.switch_cpus.iq.fu_full::IntAlu          251450     81.00%     81.00% # attempts to use FU when none available
system.switch_cpus.iq.fu_full::IntMult              0      0.00%     81.00% # attempts to use FU when none available
system.switch_cpus.iq.fu_full::IntDiv               0      0.00%     81.00% # attempts to use FU when none available
system.switch_cpus.iq.fu_full::FloatAdd             0      0.00%     81.00% # attempts to use FU when none available
system.switch_cpus.iq.fu_full::FloatCmp             0      0.00%     81.00% # attempts to use FU when none available
system.switch_cpus.iq.fu_full::FloatCvt             0      0.00%     81.00% # attempts to use FU when none available
system.switch_cpus.iq.fu_full::FloatMult            0      0.00%     81.00% # attempts to use FU when none available
system.switch_cpus.iq.fu_full::FloatMultAcc            0      0.00%     81.00% # attempts to use FU when none available
system.switch_cpus.iq.fu_full::FloatDiv             0      0.00%     81.00% # attempts to use FU when none available
system.switch_cpus.iq.fu_full::FloatMisc            0      0.00%     81.00% # attempts to use FU when none available
system.switch_cpus.iq.fu_full::FloatSqrt            0      0.00%     81.00% # attempts to use FU when none available
system.switch_cpus.iq.fu_full::SimdAdd              0      0.00%     81.00% # attempts to use FU when none available
system.switch_cpus.iq.fu_full::SimdAddAcc            0      0.00%     81.00% # attempts to use FU when none available
system.switch_cpus.iq.fu_full::SimdAlu              1      0.00%     81.00% # attempts to use FU when none available
system.switch_cpus.iq.fu_full::SimdCmp              0      0.00%     81.00% # attempts to use FU when none available
system.switch_cpus.iq.fu_full::SimdCvt              2      0.00%     81.00% # attempts to use FU when none available
system.switch_cpus.iq.fu_full::SimdMisc             0      0.00%     81.00% # attempts to use FU when none available
system.switch_cpus.iq.fu_full::SimdMult             0      0.00%     81.00% # attempts to use FU when none available
system.switch_cpus.iq.fu_full::SimdMultAcc            0      0.00%     81.00% # attempts to use FU when none available
system.switch_cpus.iq.fu_full::SimdShift            0      0.00%     81.00% # attempts to use FU when none available
system.switch_cpus.iq.fu_full::SimdShiftAcc            0      0.00%     81.00% # attempts to use FU when none available
system.switch_cpus.iq.fu_full::SimdDiv              0      0.00%     81.00% # attempts to use FU when none available
system.switch_cpus.iq.fu_full::SimdSqrt             0      0.00%     81.00% # attempts to use FU when none available
system.switch_cpus.iq.fu_full::SimdFloatAdd            0      0.00%     81.00% # attempts to use FU when none available
system.switch_cpus.iq.fu_full::SimdFloatAlu            0      0.00%     81.00% # attempts to use FU when none available
system.switch_cpus.iq.fu_full::SimdFloatCmp            0      0.00%     81.00% # attempts to use FU when none available
system.switch_cpus.iq.fu_full::SimdFloatCvt            0      0.00%     81.00% # attempts to use FU when none available
system.switch_cpus.iq.fu_full::SimdFloatDiv            0      0.00%     81.00% # attempts to use FU when none available
system.switch_cpus.iq.fu_full::SimdFloatMisc            0      0.00%     81.00% # attempts to use FU when none available
system.switch_cpus.iq.fu_full::SimdFloatMult            0      0.00%     81.00% # attempts to use FU when none available
system.switch_cpus.iq.fu_full::SimdFloatMultAcc            0      0.00%     81.00% # attempts to use FU when none available
system.switch_cpus.iq.fu_full::SimdFloatSqrt            0      0.00%     81.00% # attempts to use FU when none available
system.switch_cpus.iq.fu_full::SimdReduceAdd            0      0.00%     81.00% # attempts to use FU when none available
system.switch_cpus.iq.fu_full::SimdReduceAlu            0      0.00%     81.00% # attempts to use FU when none available
system.switch_cpus.iq.fu_full::SimdReduceCmp            0      0.00%     81.00% # attempts to use FU when none available
system.switch_cpus.iq.fu_full::SimdFloatReduceAdd            0      0.00%     81.00% # attempts to use FU when none available
system.switch_cpus.iq.fu_full::SimdFloatReduceCmp            0      0.00%     81.00% # attempts to use FU when none available
system.switch_cpus.iq.fu_full::SimdAes              0      0.00%     81.00% # attempts to use FU when none available
system.switch_cpus.iq.fu_full::SimdAesMix            0      0.00%     81.00% # attempts to use FU when none available
system.switch_cpus.iq.fu_full::SimdSha1Hash            0      0.00%     81.00% # attempts to use FU when none available
system.switch_cpus.iq.fu_full::SimdSha1Hash2            0      0.00%     81.00% # attempts to use FU when none available
system.switch_cpus.iq.fu_full::SimdSha256Hash            0      0.00%     81.00% # attempts to use FU when none available
system.switch_cpus.iq.fu_full::SimdSha256Hash2            0      0.00%     81.00% # attempts to use FU when none available
system.switch_cpus.iq.fu_full::SimdShaSigma2            0      0.00%     81.00% # attempts to use FU when none available
system.switch_cpus.iq.fu_full::SimdShaSigma3            0      0.00%     81.00% # attempts to use FU when none available
system.switch_cpus.iq.fu_full::SimdPredAlu            0      0.00%     81.00% # attempts to use FU when none available
system.switch_cpus.iq.fu_full::MemRead          37287     12.01%     93.01% # attempts to use FU when none available
system.switch_cpus.iq.fu_full::MemWrite         19477      6.27%     99.29% # attempts to use FU when none available
system.switch_cpus.iq.fu_full::FloatMemRead          130      0.04%     99.33% # attempts to use FU when none available
system.switch_cpus.iq.fu_full::FloatMemWrite         2084      0.67%    100.00% # attempts to use FU when none available
system.switch_cpus.iq.fu_full::IprAccess            0      0.00%    100.00% # attempts to use FU when none available
system.switch_cpus.iq.fu_full::InstPrefetch            0      0.00%    100.00% # attempts to use FU when none available
system.switch_cpus.iq.int_alu_accesses       19997244                       # Number of integer alu accesses
system.switch_cpus.iq.int_inst_queue_reads     66489580                       # Number of integer instruction queue reads
system.switch_cpus.iq.int_inst_queue_wakeup_accesses     19404660                       # Number of integer instruction queue wakeup accesses
system.switch_cpus.iq.int_inst_queue_writes     25550387                       # Number of integer instruction queue writes
system.switch_cpus.iq.iqInstsAdded           21731546                       # Number of instructions added to the IQ (excludes non-spec)
system.switch_cpus.iq.iqInstsIssued          20434597                       # Number of instructions issued
system.switch_cpus.iq.iqNonSpecInstsAdded        15803                       # Number of non-speculative instructions added to the IQ
system.switch_cpus.iq.iqSquashedInstsExamined      4593534                       # Number of squashed instructions iterated over during squash; mainly for profiling
system.switch_cpus.iq.iqSquashedInstsIssued        54857                       # Number of squashed instructions issued
system.switch_cpus.iq.iqSquashedNonSpecRemoved        15391                       # Number of squashed non-spec instructions that were removed
system.switch_cpus.iq.iqSquashedOperandsExamined      5327672                       # Number of squashed operands that are examined and possibly removed from graph
system.switch_cpus.iq.issued_per_cycle::samples     26599251                       # Number of insts issued each cycle
system.switch_cpus.iq.issued_per_cycle::mean     0.768240                       # Number of insts issued each cycle
system.switch_cpus.iq.issued_per_cycle::stdev     1.767271                       # Number of insts issued each cycle
system.switch_cpus.iq.issued_per_cycle::underflows            0      0.00%      0.00% # Number of insts issued each cycle
system.switch_cpus.iq.issued_per_cycle::0     20633643     77.57%     77.57% # Number of insts issued each cycle
system.switch_cpus.iq.issued_per_cycle::1      1628144      6.12%     83.69% # Number of insts issued each cycle
system.switch_cpus.iq.issued_per_cycle::2       959634      3.61%     87.30% # Number of insts issued each cycle
system.switch_cpus.iq.issued_per_cycle::3       808136      3.04%     90.34% # Number of insts issued each cycle
system.switch_cpus.iq.issued_per_cycle::4       682472      2.57%     92.90% # Number of insts issued each cycle
system.switch_cpus.iq.issued_per_cycle::5       577879      2.17%     95.08% # Number of insts issued each cycle
system.switch_cpus.iq.issued_per_cycle::6       669540      2.52%     97.59% # Number of insts issued each cycle
system.switch_cpus.iq.issued_per_cycle::7       292170      1.10%     98.69% # Number of insts issued each cycle
system.switch_cpus.iq.issued_per_cycle::8       347633      1.31%    100.00% # Number of insts issued each cycle
system.switch_cpus.iq.issued_per_cycle::overflows            0      0.00%    100.00% # Number of insts issued each cycle
system.switch_cpus.iq.issued_per_cycle::min_value            0                       # Number of insts issued each cycle
system.switch_cpus.iq.issued_per_cycle::max_value            8                       # Number of insts issued each cycle
system.switch_cpus.iq.issued_per_cycle::total     26599251                       # Number of insts issued each cycle
system.switch_cpus.iq.rate                   0.727898                       # Inst issue rate
system.switch_cpus.iq.vec_alu_accesses              0                       # Number of vector alu accesses
system.switch_cpus.iq.vec_inst_queue_reads            0                       # Number of vector instruction queue reads
system.switch_cpus.iq.vec_inst_queue_wakeup_accesses            0                       # Number of vector instruction queue wakeup accesses
system.switch_cpus.iq.vec_inst_queue_writes            0                       # Number of vector instruction queue writes
system.switch_cpus.itb.rdAccesses                   0                       # TLB accesses on read requests
system.switch_cpus.itb.rdMisses                     0                       # TLB misses on read requests
system.switch_cpus.itb.wrAccesses             1282401                       # TLB accesses on write requests
system.switch_cpus.itb.wrMisses                   937                       # TLB misses on write requests
system.switch_cpus.memDep0.conflictingLoads        65399                       # Number of conflicting loads.
system.switch_cpus.memDep0.conflictingStores        55974                       # Number of conflicting stores.
system.switch_cpus.memDep0.insertedLoads      3406382                       # Number of loads inserted to the mem dependence unit.
system.switch_cpus.memDep0.insertedStores      2030796                       # Number of stores inserted to the mem dependence unit.
system.switch_cpus.misc_regfile_reads         8797931                       # number of misc regfile reads
system.switch_cpus.misc_regfile_writes            199                       # number of misc regfile writes
system.switch_cpus.numCycles                 28073443                       # number of cpu cycles simulated
system.switch_cpus.numWorkItemsCompleted            0                       # number of work items this cpu completed
system.switch_cpus.numWorkItemsStarted              0                       # number of work items this cpu started
system.switch_cpus.rename.BlockCycles         9222535                       # Number of cycles rename is blocking
system.switch_cpus.rename.CommittedMaps      20573890                       # Number of HB maps that are committed
system.switch_cpus.rename.FullRegisterEvents            1                       # Number of times there has been no free registers
system.switch_cpus.rename.IQFullEvents         257474                       # Number of times rename has blocked due to IQ full
system.switch_cpus.rename.IdleCycles          5336678                       # Number of cycles rename is idle
system.switch_cpus.rename.LQFullEvents         364264                       # Number of times rename has blocked due to LQ full
system.switch_cpus.rename.ROBFullEvents        109238                       # Number of times rename has blocked due to ROB full
system.switch_cpus.rename.RenameLookups      57671974                       # Number of register rename lookups that rename has made
system.switch_cpus.rename.RenamedInsts       22541085                       # Number of instructions processed by rename
system.switch_cpus.rename.RenamedOperands     26789548                       # Number of destination operands rename has renamed
system.switch_cpus.rename.RunCycles           3187982                       # Number of cycles rename is running
system.switch_cpus.rename.SQFullEvents        7996387                       # Number of times rename has blocked due to SQ full
system.switch_cpus.rename.SquashCycles         119338                       # Number of cycles rename is squashing
system.switch_cpus.rename.UnblockCycles       8712853                       # Number of cycles rename is unblocking
system.switch_cpus.rename.UndoneMaps          6215635                       # Number of HB maps that are undone due to squashing
system.switch_cpus.rename.fp_rename_lookups       772480                       # Number of floating rename lookups
system.switch_cpus.rename.int_rename_lookups     36616353                       # Number of integer rename lookups
system.switch_cpus.rename.serializeStallCycles        19864                       # count of cycles rename stalled for serializing inst
system.switch_cpus.rename.serializingInsts          579                       # count of serializing insts renamed
system.switch_cpus.rename.skidInsts           2088274                       # count of insts added to the skid buffer
system.switch_cpus.rename.tempSerializingInsts          535                       # count of temporary serializing insts renamed
system.switch_cpus.rob.rob_reads             46343254                       # The number of ROB reads
system.switch_cpus.rob.rob_writes            44123193                       # The number of ROB writes
system.switch_cpus.timesIdled                   68743                       # Number of times that the entire CPU went into an idle state and unscheduled itself
system.tol2bus.snoop_filter.hit_multi_requests           40                       # Number of requests hitting in the snoop filter with multiple (>1) holders of the requested data.
system.tol2bus.snoop_filter.hit_multi_snoops            4                       # Number of snoops hitting in the snoop filter with multiple (>1) holders of the requested data.
system.tol2bus.snoop_filter.hit_single_requests       429643                       # Number of requests hitting in the snoop filter with a single holder of the requested data.
system.tol2bus.snoop_filter.hit_single_snoops       148206                       # Number of snoops hitting in the snoop filter with a single holder of the requested data.
system.tol2bus.snoop_filter.tot_requests       859416                       # Total number of requests made to the snoop filter.
system.tol2bus.snoop_filter.tot_snoops         148210                       # Total number of snoops made to the snoop filter.
system.membus.trans_dist::ReadResp              59924                       # Transaction distribution
system.membus.trans_dist::WritebackDirty       107358                       # Transaction distribution
system.membus.trans_dist::CleanEvict            50093                       # Transaction distribution
system.membus.trans_dist::ReadExReq             97841                       # Transaction distribution
system.membus.trans_dist::ReadExResp            97840                       # Transaction distribution
system.membus.trans_dist::ReadSharedReq         59924                       # Transaction distribution
system.membus.pkt_count_system.l2.mem_side::system.mem_ctrls.port       472980                       # Packet count per connected master and slave (bytes)
system.membus.pkt_count_system.l2.mem_side::total       472980                       # Packet count per connected master and slave (bytes)
system.membus.pkt_count::total                 472980                       # Packet count per connected master and slave (bytes)
system.membus.pkt_size_system.l2.mem_side::system.mem_ctrls.port     16967808                       # Cumulative packet size per connected master and slave (bytes)
system.membus.pkt_size_system.l2.mem_side::total     16967808                       # Cumulative packet size per connected master and slave (bytes)
system.membus.pkt_size::total                16967808                       # Cumulative packet size per connected master and slave (bytes)
system.membus.snoops                                0                       # Total snoops (count)
system.membus.snoopTraffic                          0                       # Total snoop traffic (bytes)
system.membus.snoop_fanout::samples            157765                       # Request fanout histogram
system.membus.snoop_fanout::mean                    0                       # Request fanout histogram
system.membus.snoop_fanout::stdev                   0                       # Request fanout histogram
system.membus.snoop_fanout::underflows              0      0.00%      0.00% # Request fanout histogram
system.membus.snoop_fanout::0                  157765    100.00%    100.00% # Request fanout histogram
system.membus.snoop_fanout::1                       0      0.00%    100.00% # Request fanout histogram
system.membus.snoop_fanout::overflows               0      0.00%    100.00% # Request fanout histogram
system.membus.snoop_fanout::min_value               0                       # Request fanout histogram
system.membus.snoop_fanout::max_value               0                       # Request fanout histogram
system.membus.snoop_fanout::total              157765                       # Request fanout histogram
system.membus.reqLayer2.occupancy           771391500                       # Layer occupancy (ticks)
system.membus.reqLayer2.utilization               5.5                       # Layer utilization (%)
system.membus.respLayer1.occupancy          837536250                       # Layer occupancy (ticks)
system.membus.respLayer1.utilization              6.0                       # Layer utilization (%)
system.membus.power_state.pwrStateResidencyTicks::UNDEFINED  14036732000                       # Cumulative time (in ticks) in various power states
system.switch_cpus.dtb.walker.power_state.pwrStateResidencyTicks::UNDEFINED  14036732000                       # Cumulative time (in ticks) in various power states
system.switch_cpus.itb.walker.power_state.pwrStateResidencyTicks::UNDEFINED  14036732000                       # Cumulative time (in ticks) in various power states
system.switch_cpus.power_state.pwrStateResidencyTicks::OFF  14036732000                       # Cumulative time (in ticks) in various power states
system.tol2bus.trans_dist::ReadResp            315068                       # Transaction distribution
system.tol2bus.trans_dist::WritebackDirty       261574                       # Transaction distribution
system.tol2bus.trans_dist::WritebackClean       196743                       # Transaction distribution
system.tol2bus.trans_dist::CleanEvict          246359                       # Transaction distribution
system.tol2bus.trans_dist::ReadExReq           114704                       # Transaction distribution
system.tol2bus.trans_dist::ReadExResp          114703                       # Transaction distribution
system.tol2bus.trans_dist::ReadCleanReq        196808                       # Transaction distribution
system.tol2bus.trans_dist::ReadSharedReq       118261                       # Transaction distribution
system.tol2bus.pkt_count_system.cpu.icache.mem_side::system.l2.cpu_side       590358                       # Packet count per connected master and slave (bytes)
system.tol2bus.pkt_count_system.cpu.dcache.mem_side::system.l2.cpu_side       698829                       # Packet count per connected master and slave (bytes)
system.tol2bus.pkt_count::total               1289187                       # Packet count per connected master and slave (bytes)
system.tol2bus.pkt_size_system.cpu.icache.mem_side::system.l2.cpu_side     25187200                       # Cumulative packet size per connected master and slave (bytes)
system.tol2bus.pkt_size_system.cpu.dcache.mem_side::system.l2.cpu_side     24779520                       # Cumulative packet size per connected master and slave (bytes)
system.tol2bus.pkt_size::total               49966720                       # Cumulative packet size per connected master and slave (bytes)
system.tol2bus.snoops                          275033                       # Total snoops (count)
system.tol2bus.snoopTraffic                   6870912                       # Total snoop traffic (bytes)
system.tol2bus.snoop_fanout::samples           704806                       # Request fanout histogram
system.tol2bus.snoop_fanout::mean            0.210347                       # Request fanout histogram
system.tol2bus.snoop_fanout::stdev           0.407569                       # Request fanout histogram
system.tol2bus.snoop_fanout::underflows             0      0.00%      0.00% # Request fanout histogram
system.tol2bus.snoop_fanout::0                 556556     78.97%     78.97% # Request fanout histogram
system.tol2bus.snoop_fanout::1                 148246     21.03%    100.00% # Request fanout histogram
system.tol2bus.snoop_fanout::2                      4      0.00%    100.00% # Request fanout histogram
system.tol2bus.snoop_fanout::3                      0      0.00%    100.00% # Request fanout histogram
system.tol2bus.snoop_fanout::4                      0      0.00%    100.00% # Request fanout histogram
system.tol2bus.snoop_fanout::overflows              0      0.00%    100.00% # Request fanout histogram
system.tol2bus.snoop_fanout::min_value              0                       # Request fanout histogram
system.tol2bus.snoop_fanout::max_value              2                       # Request fanout histogram
system.tol2bus.snoop_fanout::total             704806                       # Request fanout histogram
system.tol2bus.reqLayer0.occupancy          780665500                       # Layer occupancy (ticks)
system.tol2bus.reqLayer0.utilization              5.6                       # Layer utilization (%)
system.tol2bus.respLayer1.occupancy         349616156                       # Layer occupancy (ticks)
system.tol2bus.respLayer1.utilization             2.5                       # Layer utilization (%)
system.tol2bus.respLayer0.occupancy         295450014                       # Layer occupancy (ticks)
system.tol2bus.respLayer0.utilization             2.1                       # Layer utilization (%)
system.tol2bus.power_state.pwrStateResidencyTicks::UNDEFINED  14036732000                       # Cumulative time (in ticks) in various power states
system.voltage_domain.voltage                       1                       # Voltage in Volts
system.clk_domain.clock                          1000                       # Clock period in ticks
system.l2.demand_hits::.switch_cpus.inst       182735                       # number of demand (read+write) hits
system.l2.demand_hits::.switch_cpus.data        89270                       # number of demand (read+write) hits
system.l2.demand_hits::total                   272005                       # number of demand (read+write) hits
system.l2.overall_hits::.switch_cpus.inst       182735                       # number of overall hits
system.l2.overall_hits::.switch_cpus.data        89270                       # number of overall hits
system.l2.overall_hits::total                  272005                       # number of overall hits
system.l2.demand_misses::.cpu.inst                  2                       # number of demand (read+write) misses
system.l2.demand_misses::.cpu.data                  1                       # number of demand (read+write) misses
system.l2.demand_misses::.switch_cpus.inst        14071                       # number of demand (read+write) misses
system.l2.demand_misses::.switch_cpus.data       143694                       # number of demand (read+write) misses
system.l2.demand_misses::total                 157768                       # number of demand (read+write) misses
system.l2.overall_misses::.cpu.inst                 2                       # number of overall misses
system.l2.overall_misses::.cpu.data                 1                       # number of overall misses
system.l2.overall_misses::.switch_cpus.inst        14071                       # number of overall misses
system.l2.overall_misses::.switch_cpus.data       143694                       # number of overall misses
system.l2.overall_misses::total                157768                       # number of overall misses
system.l2.demand_miss_latency::.switch_cpus.inst   1204457500                       # number of demand (read+write) miss cycles
system.l2.demand_miss_latency::.switch_cpus.data  11638440500                       # number of demand (read+write) miss cycles
system.l2.demand_miss_latency::total      12842898000                       # number of demand (read+write) miss cycles
system.l2.overall_miss_latency::.switch_cpus.inst   1204457500                       # number of overall miss cycles
system.l2.overall_miss_latency::.switch_cpus.data  11638440500                       # number of overall miss cycles
system.l2.overall_miss_latency::total     12842898000                       # number of overall miss cycles
system.l2.demand_accesses::.cpu.inst                2                       # number of demand (read+write) accesses
system.l2.demand_accesses::.cpu.data                1                       # number of demand (read+write) accesses
system.l2.demand_accesses::.switch_cpus.inst       196806                       # number of demand (read+write) accesses
system.l2.demand_accesses::.switch_cpus.data       232964                       # number of demand (read+write) accesses
system.l2.demand_accesses::total               429773                       # number of demand (read+write) accesses
system.l2.overall_accesses::.cpu.inst               2                       # number of overall (read+write) accesses
system.l2.overall_accesses::.cpu.data               1                       # number of overall (read+write) accesses
system.l2.overall_accesses::.switch_cpus.inst       196806                       # number of overall (read+write) accesses
system.l2.overall_accesses::.switch_cpus.data       232964                       # number of overall (read+write) accesses
system.l2.overall_accesses::total              429773                       # number of overall (read+write) accesses
system.l2.demand_miss_rate::.cpu.inst               1                       # miss rate for demand accesses
system.l2.demand_miss_rate::.cpu.data               1                       # miss rate for demand accesses
system.l2.demand_miss_rate::.switch_cpus.inst     0.071497                       # miss rate for demand accesses
system.l2.demand_miss_rate::.switch_cpus.data     0.616808                       # miss rate for demand accesses
system.l2.demand_miss_rate::total            0.367096                       # miss rate for demand accesses
system.l2.overall_miss_rate::.cpu.inst              1                       # miss rate for overall accesses
system.l2.overall_miss_rate::.cpu.data              1                       # miss rate for overall accesses
system.l2.overall_miss_rate::.switch_cpus.inst     0.071497                       # miss rate for overall accesses
system.l2.overall_miss_rate::.switch_cpus.data     0.616808                       # miss rate for overall accesses
system.l2.overall_miss_rate::total           0.367096                       # miss rate for overall accesses
system.l2.demand_avg_miss_latency::.switch_cpus.inst 85598.571530                       # average overall miss latency
system.l2.demand_avg_miss_latency::.switch_cpus.data 80994.617033                       # average overall miss latency
system.l2.demand_avg_miss_latency::total 81403.694032                       # average overall miss latency
system.l2.overall_avg_miss_latency::.switch_cpus.inst 85598.571530                       # average overall miss latency
system.l2.overall_avg_miss_latency::.switch_cpus.data 80994.617033                       # average overall miss latency
system.l2.overall_avg_miss_latency::total 81403.694032                       # average overall miss latency
system.l2.blocked_cycles::no_mshrs                  0                       # number of cycles access was blocked
system.l2.blocked_cycles::no_targets                0                       # number of cycles access was blocked
system.l2.blocked::no_mshrs                         0                       # number of cycles access was blocked
system.l2.blocked::no_targets                       0                       # number of cycles access was blocked
system.l2.avg_blocked_cycles::no_mshrs            nan                       # average number of cycles each access was blocked
system.l2.avg_blocked_cycles::no_targets          nan                       # average number of cycles each access was blocked
system.l2.writebacks::.writebacks              107358                       # number of writebacks
system.l2.writebacks::total                    107358                       # number of writebacks
system.l2.demand_mshr_hits::.switch_cpus.inst            1                       # number of demand (read+write) MSHR hits
system.l2.demand_mshr_hits::.switch_cpus.data            2                       # number of demand (read+write) MSHR hits
system.l2.demand_mshr_hits::total                   3                       # number of demand (read+write) MSHR hits
system.l2.overall_mshr_hits::.switch_cpus.inst            1                       # number of overall MSHR hits
system.l2.overall_mshr_hits::.switch_cpus.data            2                       # number of overall MSHR hits
system.l2.overall_mshr_hits::total                  3                       # number of overall MSHR hits
system.l2.demand_mshr_misses::.switch_cpus.inst        14070                       # number of demand (read+write) MSHR misses
system.l2.demand_mshr_misses::.switch_cpus.data       143692                       # number of demand (read+write) MSHR misses
system.l2.demand_mshr_misses::total            157762                       # number of demand (read+write) MSHR misses
system.l2.overall_mshr_misses::.switch_cpus.inst        14070                       # number of overall MSHR misses
system.l2.overall_mshr_misses::.switch_cpus.data       143692                       # number of overall MSHR misses
system.l2.overall_mshr_misses::total           157762                       # number of overall MSHR misses
system.l2.demand_mshr_miss_latency::.switch_cpus.inst   1063661000                       # number of demand (read+write) MSHR miss cycles
system.l2.demand_mshr_miss_latency::.switch_cpus.data  10201409500                       # number of demand (read+write) MSHR miss cycles
system.l2.demand_mshr_miss_latency::total  11265070500                       # number of demand (read+write) MSHR miss cycles
system.l2.overall_mshr_miss_latency::.switch_cpus.inst   1063661000                       # number of overall MSHR miss cycles
system.l2.overall_mshr_miss_latency::.switch_cpus.data  10201409500                       # number of overall MSHR miss cycles
system.l2.overall_mshr_miss_latency::total  11265070500                       # number of overall MSHR miss cycles
system.l2.demand_mshr_miss_rate::.switch_cpus.inst     0.071492                       # mshr miss rate for demand accesses
system.l2.demand_mshr_miss_rate::.switch_cpus.data     0.616799                       # mshr miss rate for demand accesses
system.l2.demand_mshr_miss_rate::total       0.367082                       # mshr miss rate for demand accesses
system.l2.overall_mshr_miss_rate::.switch_cpus.inst     0.071492                       # mshr miss rate for overall accesses
system.l2.overall_mshr_miss_rate::.switch_cpus.data     0.616799                       # mshr miss rate for overall accesses
system.l2.overall_mshr_miss_rate::total      0.367082                       # mshr miss rate for overall accesses
system.l2.demand_avg_mshr_miss_latency::.switch_cpus.inst 75597.796731                       # average overall mshr miss latency
system.l2.demand_avg_mshr_miss_latency::.switch_cpus.data 70994.971884                       # average overall mshr miss latency
system.l2.demand_avg_mshr_miss_latency::total 71405.474702                       # average overall mshr miss latency
system.l2.overall_avg_mshr_miss_latency::.switch_cpus.inst 75597.796731                       # average overall mshr miss latency
system.l2.overall_avg_mshr_miss_latency::.switch_cpus.data 70994.971884                       # average overall mshr miss latency
system.l2.overall_avg_mshr_miss_latency::total 71405.474702                       # average overall mshr miss latency
system.l2.replacements                         275033                       # number of replacements
system.l2.WritebackDirty_hits::.writebacks       154216                       # number of WritebackDirty hits
system.l2.WritebackDirty_hits::total           154216                       # number of WritebackDirty hits
system.l2.WritebackDirty_accesses::.writebacks       154216                       # number of WritebackDirty accesses(hits+misses)
system.l2.WritebackDirty_accesses::total       154216                       # number of WritebackDirty accesses(hits+misses)
system.l2.WritebackClean_hits::.writebacks       196723                       # number of WritebackClean hits
system.l2.WritebackClean_hits::total           196723                       # number of WritebackClean hits
system.l2.WritebackClean_accesses::.writebacks       196723                       # number of WritebackClean accesses(hits+misses)
system.l2.WritebackClean_accesses::total       196723                       # number of WritebackClean accesses(hits+misses)
system.l2.CleanEvict_mshr_misses::.writebacks        30628                       # number of CleanEvict MSHR misses
system.l2.CleanEvict_mshr_misses::total         30628                       # number of CleanEvict MSHR misses
system.l2.CleanEvict_mshr_miss_rate::.writebacks          inf                       # mshr miss rate for CleanEvict accesses
system.l2.CleanEvict_mshr_miss_rate::total          inf                       # mshr miss rate for CleanEvict accesses
system.l2.ReadExReq_hits::.switch_cpus.data        16863                       # number of ReadExReq hits
system.l2.ReadExReq_hits::total                 16863                       # number of ReadExReq hits
system.l2.ReadExReq_misses::.cpu.data               1                       # number of ReadExReq misses
system.l2.ReadExReq_misses::.switch_cpus.data        97840                       # number of ReadExReq misses
system.l2.ReadExReq_misses::total               97841                       # number of ReadExReq misses
system.l2.ReadExReq_miss_latency::.switch_cpus.data   7849499000                       # number of ReadExReq miss cycles
system.l2.ReadExReq_miss_latency::total    7849499000                       # number of ReadExReq miss cycles
system.l2.ReadExReq_accesses::.cpu.data             1                       # number of ReadExReq accesses(hits+misses)
system.l2.ReadExReq_accesses::.switch_cpus.data       114703                       # number of ReadExReq accesses(hits+misses)
system.l2.ReadExReq_accesses::total            114704                       # number of ReadExReq accesses(hits+misses)
system.l2.ReadExReq_miss_rate::.cpu.data            1                       # miss rate for ReadExReq accesses
system.l2.ReadExReq_miss_rate::.switch_cpus.data     0.852986                       # miss rate for ReadExReq accesses
system.l2.ReadExReq_miss_rate::total         0.852987                       # miss rate for ReadExReq accesses
system.l2.ReadExReq_avg_miss_latency::.switch_cpus.data 80227.912919                       # average ReadExReq miss latency
system.l2.ReadExReq_avg_miss_latency::total 80227.092936                       # average ReadExReq miss latency
system.l2.ReadExReq_mshr_misses::.switch_cpus.data        97840                       # number of ReadExReq MSHR misses
system.l2.ReadExReq_mshr_misses::total          97840                       # number of ReadExReq MSHR misses
system.l2.ReadExReq_mshr_miss_latency::.switch_cpus.data   6871109000                       # number of ReadExReq MSHR miss cycles
system.l2.ReadExReq_mshr_miss_latency::total   6871109000                       # number of ReadExReq MSHR miss cycles
system.l2.ReadExReq_mshr_miss_rate::.switch_cpus.data     0.852986                       # mshr miss rate for ReadExReq accesses
system.l2.ReadExReq_mshr_miss_rate::total     0.852978                       # mshr miss rate for ReadExReq accesses
system.l2.ReadExReq_avg_mshr_miss_latency::.switch_cpus.data 70228.015127                       # average ReadExReq mshr miss latency
system.l2.ReadExReq_avg_mshr_miss_latency::total 70228.015127                       # average ReadExReq mshr miss latency
system.l2.ReadCleanReq_hits::.switch_cpus.inst       182735                       # number of ReadCleanReq hits
system.l2.ReadCleanReq_hits::total             182735                       # number of ReadCleanReq hits
[...]
system.cpu.itb.walker.power_state.pwrStateResidencyTicks::UNDEFINED  15336148500                       # Cumulative time (in ticks) in various power states
system.cpu.dtb_walker_cache.blocked_cycles::no_mshrs            0                       # number of cycles access was blocked
system.cpu.dtb_walker_cache.blocked_cycles::no_targets            0                       # number of cycles access was blocked
system.cpu.dtb_walker_cache.blocked::no_mshrs            0                       # number of cycles access was blocked
system.cpu.dtb_walker_cache.blocked::no_targets            0                       # number of cycles access was blocked
system.cpu.dtb_walker_cache.avg_blocked_cycles::no_mshrs          nan                       # average number of cycles each access was blocked
system.cpu.dtb_walker_cache.avg_blocked_cycles::no_targets          nan                       # average number of cycles each access was blocked
system.cpu.dtb_walker_cache.replacements            0                       # number of replacements
system.cpu.dtb_walker_cache.power_state.pwrStateResidencyTicks::UNDEFINED  15336148500                       # Cumulative time (in ticks) in various power states
system.cpu.dtb_walker_cache.tags.tagsinuse            0                       # Cycle average of tags in use
system.cpu.dtb_walker_cache.tags.total_refs            0                       # Total number of references to valid blocks.
system.cpu.dtb_walker_cache.tags.sampled_refs            0                       # Sample count of references to valid blocks.
system.cpu.dtb_walker_cache.tags.avg_refs          nan                       # Average number of references to valid blocks.
system.cpu.dtb_walker_cache.tags.warmup_cycle            0                       # Cycle when the warmup percentage was hit.
system.cpu.dtb_walker_cache.tags.tag_accesses            0                       # Number of tag accesses
system.cpu.dtb_walker_cache.tags.data_accesses            0                       # Number of data accesses
system.cpu.dtb_walker_cache.tags.power_state.pwrStateResidencyTicks::UNDEFINED  15336148500                       # Cumulative time (in ticks) in various power states
system.cpu.dcache.demand_hits::.cpu.data            6                       # number of demand (read+write) hits
system.cpu.dcache.demand_hits::.switch_cpus.data      4708445                       # number of demand (read+write) hits
system.cpu.dcache.demand_hits::total          4708451                       # number of demand (read+write) hits
system.cpu.dcache.overall_hits::.cpu.data            6                       # number of overall hits
system.cpu.dcache.overall_hits::.switch_cpus.data      4708689                       # number of overall hits
system.cpu.dcache.overall_hits::total         4708695                       # number of overall hits
system.cpu.dcache.demand_misses::.cpu.data            1                       # number of demand (read+write) misses
system.cpu.dcache.demand_misses::.switch_cpus.data       401745                       # number of demand (read+write) misses
system.cpu.dcache.demand_misses::total         401746                       # number of demand (read+write) misses
system.cpu.dcache.overall_misses::.cpu.data            1                       # number of overall misses
system.cpu.dcache.overall_misses::.switch_cpus.data       411977                       # number of overall misses
system.cpu.dcache.overall_misses::total        411978                       # number of overall misses
system.cpu.dcache.demand_miss_latency::.switch_cpus.data  22279854832                       # number of demand (read+write) miss cycles
system.cpu.dcache.demand_miss_latency::total  22279854832                       # number of demand (read+write) miss cycles
system.cpu.dcache.overall_miss_latency::.switch_cpus.data  22279854832                       # number of overall miss cycles
system.cpu.dcache.overall_miss_latency::total  22279854832                       # number of overall miss cycles
system.cpu.dcache.demand_accesses::.cpu.data            7                       # number of demand (read+write) accesses
system.cpu.dcache.demand_accesses::.switch_cpus.data      5110190                       # number of demand (read+write) accesses
system.cpu.dcache.demand_accesses::total      5110197                       # number of demand (read+write) accesses
system.cpu.dcache.overall_accesses::.cpu.data            7                       # number of overall (read+write) accesses
system.cpu.dcache.overall_accesses::.switch_cpus.data      5120666                       # number of overall (read+write) accesses
system.cpu.dcache.overall_accesses::total      5120673                       # number of overall (read+write) accesses
system.cpu.dcache.demand_miss_rate::.cpu.data     0.142857                       # miss rate for demand accesses
system.cpu.dcache.demand_miss_rate::.switch_cpus.data     0.078616                       # miss rate for demand accesses
system.cpu.dcache.demand_miss_rate::total     0.078617                       # miss rate for demand accesses
system.cpu.dcache.overall_miss_rate::.cpu.data     0.142857                       # miss rate for overall accesses
system.cpu.dcache.overall_miss_rate::.switch_cpus.data     0.080454                       # miss rate for overall accesses
system.cpu.dcache.overall_miss_rate::total     0.080454                       # miss rate for overall accesses
system.cpu.dcache.demand_avg_miss_latency::.switch_cpus.data 55457.702851                       # average overall miss latency
system.cpu.dcache.demand_avg_miss_latency::total 55457.564810                       # average overall miss latency
system.cpu.dcache.overall_avg_miss_latency::.switch_cpus.data 54080.336601                       # average overall miss latency
system.cpu.dcache.overall_avg_miss_latency::total 54080.205331                       # average overall miss latency
system.cpu.dcache.blocked_cycles::no_mshrs       816263                       # number of cycles access was blocked
system.cpu.dcache.blocked_cycles::no_targets         2463                       # number of cycles access was blocked
system.cpu.dcache.blocked::no_mshrs             13595                       # number of cycles access was blocked
system.cpu.dcache.blocked::no_targets              35                       # number of cycles access was blocked
system.cpu.dcache.avg_blocked_cycles::no_mshrs    60.041412                       # average number of cycles each access was blocked
system.cpu.dcache.avg_blocked_cycles::no_targets    70.371429                       # average number of cycles each access was blocked
system.cpu.dcache.writebacks::.writebacks       169369                       # number of writebacks
system.cpu.dcache.writebacks::total            169369                       # number of writebacks
system.cpu.dcache.demand_mshr_hits::.switch_cpus.data       148596                       # number of demand (read+write) MSHR hits
system.cpu.dcache.demand_mshr_hits::total       148596                       # number of demand (read+write) MSHR hits
system.cpu.dcache.overall_mshr_hits::.switch_cpus.data       148596                       # number of overall MSHR hits
system.cpu.dcache.overall_mshr_hits::total       148596                       # number of overall MSHR hits
system.cpu.dcache.demand_mshr_misses::.switch_cpus.data       253149                       # number of demand (read+write) MSHR misses
system.cpu.dcache.demand_mshr_misses::total       253149                       # number of demand (read+write) MSHR misses
system.cpu.dcache.overall_mshr_misses::.switch_cpus.data       263379                       # number of overall MSHR misses
system.cpu.dcache.overall_mshr_misses::total       263379                       # number of overall MSHR misses
system.cpu.dcache.demand_mshr_miss_latency::.switch_cpus.data  13912295337                       # number of demand (read+write) MSHR miss cycles
system.cpu.dcache.demand_mshr_miss_latency::total  13912295337                       # number of demand (read+write) MSHR miss cycles
system.cpu.dcache.overall_mshr_miss_latency::.switch_cpus.data  14844222337                       # number of overall MSHR miss cycles
system.cpu.dcache.overall_mshr_miss_latency::total  14844222337                       # number of overall MSHR miss cycles
system.cpu.dcache.demand_mshr_miss_rate::.switch_cpus.data     0.049538                       # mshr miss rate for demand accesses
system.cpu.dcache.demand_mshr_miss_rate::total     0.049538                       # mshr miss rate for demand accesses
system.cpu.dcache.overall_mshr_miss_rate::.switch_cpus.data     0.051435                       # mshr miss rate for overall accesses
system.cpu.dcache.overall_mshr_miss_rate::total     0.051434                       # mshr miss rate for overall accesses
system.cpu.dcache.demand_avg_mshr_miss_latency::.switch_cpus.data 54956.943685                       # average overall mshr miss latency
system.cpu.dcache.demand_avg_mshr_miss_latency::total 54956.943685                       # average overall mshr miss latency
system.cpu.dcache.overall_avg_mshr_miss_latency::.switch_cpus.data 56360.690628                       # average overall mshr miss latency
system.cpu.dcache.overall_avg_mshr_miss_latency::total 56360.690628                       # average overall mshr miss latency
system.cpu.dcache.replacements                 263316                       # number of replacements
system.cpu.dcache.ReadReq_hits::.switch_cpus.data      2951591                       # number of ReadReq hits
system.cpu.dcache.ReadReq_hits::total         2951591                       # number of ReadReq hits
system.cpu.dcache.ReadReq_misses::.switch_cpus.data       276841                       # number of ReadReq misses
system.cpu.dcache.ReadReq_misses::total        276841                       # number of ReadReq misses
system.cpu.dcache.ReadReq_miss_latency::.switch_cpus.data  13237986500                       # number of ReadReq miss cycles
system.cpu.dcache.ReadReq_miss_latency::total  13237986500                       # number of ReadReq miss cycles
system.cpu.dcache.ReadReq_accesses::.switch_cpus.data      3228432                       # number of ReadReq accesses(hits+misses)
system.cpu.dcache.ReadReq_accesses::total      3228432                       # number of ReadReq accesses(hits+misses)
system.cpu.dcache.ReadReq_miss_rate::.switch_cpus.data     0.085751                       # miss rate for ReadReq accesses
system.cpu.dcache.ReadReq_miss_rate::total     0.085751                       # miss rate for ReadReq accesses
system.cpu.dcache.ReadReq_avg_miss_latency::.switch_cpus.data 47818.012867                       # average ReadReq miss latency
system.cpu.dcache.ReadReq_avg_miss_latency::total 47818.012867                       # average ReadReq miss latency
system.cpu.dcache.ReadReq_mshr_hits::.switch_cpus.data       147913                       # number of ReadReq MSHR hits
system.cpu.dcache.ReadReq_mshr_hits::total       147913                       # number of ReadReq MSHR hits
system.cpu.dcache.ReadReq_mshr_misses::.switch_cpus.data       128928                       # number of ReadReq MSHR misses
system.cpu.dcache.ReadReq_mshr_misses::total       128928                       # number of ReadReq MSHR misses
system.cpu.dcache.ReadReq_mshr_miss_latency::.switch_cpus.data   5013638500                       # number of ReadReq MSHR miss cycles
system.cpu.dcache.ReadReq_mshr_miss_latency::total   5013638500                       # number of ReadReq MSHR miss cycles
system.cpu.dcache.ReadReq_mshr_miss_rate::.switch_cpus.data     0.039935                       # mshr miss rate for ReadReq accesses
system.cpu.dcache.ReadReq_mshr_miss_rate::total     0.039935                       # mshr miss rate for ReadReq accesses
system.cpu.dcache.ReadReq_avg_mshr_miss_latency::.switch_cpus.data 38887.119167                       # average ReadReq mshr miss latency
system.cpu.dcache.ReadReq_avg_mshr_miss_latency::total 38887.119167                       # average ReadReq mshr miss latency
system.cpu.dcache.WriteReq_hits::.cpu.data            6                       # number of WriteReq hits
system.cpu.dcache.WriteReq_hits::.switch_cpus.data      1756854                       # number of WriteReq hits
system.cpu.dcache.WriteReq_hits::total        1756860                       # number of WriteReq hits
system.cpu.dcache.WriteReq_misses::.cpu.data            1                       # number of WriteReq misses
system.cpu.dcache.WriteReq_misses::.switch_cpus.data       124904                       # number of WriteReq misses
system.cpu.dcache.WriteReq_misses::total       124905                       # number of WriteReq misses
system.cpu.dcache.WriteReq_miss_latency::.switch_cpus.data   9041868332                       # number of WriteReq miss cycles
system.cpu.dcache.WriteReq_miss_latency::total   9041868332                       # number of WriteReq miss cycles
system.cpu.dcache.WriteReq_accesses::.cpu.data            7                       # number of WriteReq accesses(hits+misses)
system.cpu.dcache.WriteReq_accesses::.switch_cpus.data      1881758                       # number of WriteReq accesses(hits+misses)
system.cpu.dcache.WriteReq_accesses::total      1881765                       # number of WriteReq accesses(hits+misses)
system.cpu.dcache.WriteReq_miss_rate::.cpu.data     0.142857                       # miss rate for WriteReq accesses
system.cpu.dcache.WriteReq_miss_rate::.switch_cpus.data     0.066376                       # miss rate for WriteReq accesses
system.cpu.dcache.WriteReq_miss_rate::total     0.066377                       # miss rate for WriteReq accesses
system.cpu.dcache.WriteReq_avg_miss_latency::.switch_cpus.data 72390.542593                       # average WriteReq miss latency
system.cpu.dcache.WriteReq_avg_miss_latency::total 72389.963028                       # average WriteReq miss latency
system.cpu.dcache.WriteReq_mshr_hits::.switch_cpus.data          683                       # number of WriteReq MSHR hits
system.cpu.dcache.WriteReq_mshr_hits::total          683                       # number of WriteReq MSHR hits
system.cpu.dcache.WriteReq_mshr_misses::.switch_cpus.data       124221                       # number of WriteReq MSHR misses
system.cpu.dcache.WriteReq_mshr_misses::total       124221                       # number of WriteReq MSHR misses
system.cpu.dcache.WriteReq_mshr_miss_latency::.switch_cpus.data   8898656837                       # number of WriteReq MSHR miss cycles
system.cpu.dcache.WriteReq_mshr_miss_latency::total   8898656837                       # number of WriteReq MSHR miss cycles
system.cpu.dcache.WriteReq_mshr_miss_rate::.switch_cpus.data     0.066013                       # mshr miss rate for WriteReq accesses
system.cpu.dcache.WriteReq_mshr_miss_rate::total     0.066013                       # mshr miss rate for WriteReq accesses
system.cpu.dcache.WriteReq_avg_mshr_miss_latency::.switch_cpus.data 71635.688306                       # average WriteReq mshr miss latency
system.cpu.dcache.WriteReq_avg_mshr_miss_latency::total 71635.688306                       # average WriteReq mshr miss latency
system.cpu.dcache.SoftPFReq_hits::.switch_cpus.data          244                       # number of SoftPFReq hits
system.cpu.dcache.SoftPFReq_hits::total           244                       # number of SoftPFReq hits
system.cpu.dcache.SoftPFReq_misses::.switch_cpus.data        10232                       # number of SoftPFReq misses
system.cpu.dcache.SoftPFReq_misses::total        10232                       # number of SoftPFReq misses
system.cpu.dcache.SoftPFReq_accesses::.switch_cpus.data        10476                       # number of SoftPFReq accesses(hits+misses)
system.cpu.dcache.SoftPFReq_accesses::total        10476                       # number of SoftPFReq accesses(hits+misses)
system.cpu.dcache.SoftPFReq_miss_rate::.switch_cpus.data     0.976709                       # miss rate for SoftPFReq accesses
system.cpu.dcache.SoftPFReq_miss_rate::total     0.976709                       # miss rate for SoftPFReq accesses
system.cpu.dcache.SoftPFReq_mshr_misses::.switch_cpus.data        10230                       # number of SoftPFReq MSHR misses
system.cpu.dcache.SoftPFReq_mshr_misses::total        10230                       # number of SoftPFReq MSHR misses
system.cpu.dcache.SoftPFReq_mshr_miss_latency::.switch_cpus.data    931927000                       # number of SoftPFReq MSHR miss cycles
system.cpu.dcache.SoftPFReq_mshr_miss_latency::total    931927000                       # number of SoftPFReq MSHR miss cycles
system.cpu.dcache.SoftPFReq_mshr_miss_rate::.switch_cpus.data     0.976518                       # mshr miss rate for SoftPFReq accesses
system.cpu.dcache.SoftPFReq_mshr_miss_rate::total     0.976518                       # mshr miss rate for SoftPFReq accesses
system.cpu.dcache.SoftPFReq_avg_mshr_miss_latency::.switch_cpus.data 91097.458456                       # average SoftPFReq mshr miss latency
system.cpu.dcache.SoftPFReq_avg_mshr_miss_latency::total 91097.458456                       # average SoftPFReq mshr miss latency
system.cpu.dcache.power_state.pwrStateResidencyTicks::UNDEFINED  15336148500                       # Cumulative time (in ticks) in various power states
system.cpu.dcache.tags.tagsinuse            63.988837                       # Cycle average of tags in use
system.cpu.dcache.tags.total_refs             4972075                       # Total number of references to valid blocks.
system.cpu.dcache.tags.sampled_refs            263380                       # Sample count of references to valid blocks.
system.cpu.dcache.tags.avg_refs             18.877952                       # Average number of references to valid blocks.
system.cpu.dcache.tags.warmup_cycle              1500                       # Cycle when the warmup percentage was hit.
system.cpu.dcache.tags.occ_blocks::.cpu.data     0.000498                       # Average occupied blocks per requestor
system.cpu.dcache.tags.occ_blocks::.switch_cpus.data    63.988338                       # Average occupied blocks per requestor
system.cpu.dcache.tags.occ_percent::.cpu.data     0.000008                       # Average percentage of cache occupancy
system.cpu.dcache.tags.occ_percent::.switch_cpus.data     0.999818                       # Average percentage of cache occupancy
system.cpu.dcache.tags.occ_percent::total     0.999826                       # Average percentage of cache occupancy
system.cpu.dcache.tags.occ_task_id_blocks::1024           64                       # Occupied blocks per task id
system.cpu.dcache.tags.age_task_id_blocks_1024::0           39                       # Occupied blocks per task id
system.cpu.dcache.tags.age_task_id_blocks_1024::1           25                       # Occupied blocks per task id
system.cpu.dcache.tags.occ_task_id_percent::1024            1                       # Percentage of cache occupancy per task id
system.cpu.dcache.tags.tag_accesses          10504726                       # Number of tag accesses
system.cpu.dcache.tags.data_accesses         10504726                       # Number of data accesses
system.cpu.dcache.tags.power_state.pwrStateResidencyTicks::UNDEFINED  15336148500                       # Cumulative time (in ticks) in various power states
system.cpu.power_state.numTransitions               1                       # Number of power state transitions
system.cpu.power_state.pwrStateResidencyTicks::ON        10500                       # Cumulative time (in ticks) in various power states
system.cpu.power_state.pwrStateResidencyTicks::OFF  15336138000                       # Cumulative time (in ticks) in various power states

---------- End Simulation Statistics   ----------
