
---------- Begin Simulation Statistics ----------
final_tick                                30707014500                       # Number of ticks from beginning of simulation (restored from checkpoints and never reset)
host_inst_rate                                  59616                       # Simulator instruction rate (inst/s)
host_mem_usage                                1041976                       # Number of bytes of host memory used
host_op_rate                                   115368                       # Simulator op (including micro ops) rate (op/s)
host_seconds                                   167.74                       # Real time elapsed on the host
host_tick_rate                              183062455                       # Simulator tick rate (ticks/s)
sim_freq                                 1000000000000                       # Frequency of simulated ticks
sim_insts                                    10000012                       # Number of instructions simulated
sim_ops                                      19351849                       # Number of ops (including micro ops) simulated
sim_seconds                                  0.030707                       # Number of seconds simulated
sim_ticks                                 30707014500                       # Number of ticks simulated
system.cpu.Branches                                 1                       # Number of branches fetched
system.cpu.committedInsts                          10                       # Number of instructions committed
system.cpu.committedOps                            21                       # Number of ops (including micro ops) committed
system.cpu.dtb.rdAccesses                           0                       # TLB accesses on read requests
system.cpu.dtb.rdMisses                             0                       # TLB misses on read requests
system.cpu.dtb.wrAccesses                           7                       # TLB accesses on write requests
system.cpu.dtb.wrMisses                             1                       # TLB misses on write requests
system.cpu.idle_fraction                            0                       # Percentage of idle cycles
system.cpu.itb.rdAccesses                           0                       # TLB accesses on read requests
system.cpu.itb.rdMisses                             0                       # TLB misses on read requests
system.cpu.itb.wrAccesses                          10                       # TLB accesses on write requests
system.cpu.itb.wrMisses                             0                       # TLB misses on write requests
system.cpu.not_idle_fraction                        1                       # Percentage of non-idle cycles
system.cpu.numCycles                               21                       # number of cpu cycles simulated
system.cpu.numWorkItemsCompleted                    0                       # number of work items this cpu completed
system.cpu.numWorkItemsStarted                      0                       # number of work items this cpu started
system.cpu.num_busy_cycles                         21                       # Number of busy cycles
system.cpu.num_cc_register_writes                   2                       # number of times the CC registers were written
system.cpu.num_conditional_control_insts            0                       # number of instructions that are conditional controls
system.cpu.num_fp_alu_accesses                      0                       # Number of float alu accesses
system.cpu.num_fp_insts                             0                       # number of float instructions
system.cpu.num_fp_register_reads                    0                       # number of times the floating registers were read
system.cpu.num_fp_register_writes                   0                       # number of times the floating registers were written
system.cpu.num_func_calls                           1                       # number of times a function call or return occured
system.cpu.num_idle_cycles                          0                       # Number of idle cycles
system.cpu.num_int_alu_accesses                    21                       # Number of integer alu accesses
system.cpu.num_int_insts                           21                       # number of integer instructions
system.cpu.num_int_register_reads                  47                       # number of times the integer registers were read
system.cpu.num_int_register_writes                 13                       # number of times the integer registers were written
system.cpu.num_load_insts                           0                       # Number of load instructions
system.cpu.num_mem_refs                             7                       # number of memory refs
system.cpu.num_store_insts                          7                       # Number of store instructions
system.cpu.num_vec_alu_accesses                     0                       # Number of vector alu accesses
system.cpu.num_vec_insts                            0                       # number of vector instructions
system.cpu.num_vec_register_reads                   0                       # number of times the vector registers were read
system.cpu.num_vec_register_writes                  0                       # number of times the vector registers were written
system.cpu.op_class::No_OpClass                     0      0.00%      0.00% # Class of executed instruction
system.cpu.op_class::IntAlu                        14     66.67%     66.67% # Class of executed instruction
system.cpu.op_class::IntMult                        0      0.00%     66.67% # Class of executed instruction
system.cpu.op_class::IntDiv                         0      0.00%     66.67% # Class of executed instruction
system.cpu.op_class::FloatAdd                       0      0.00%     66.67% # Class of executed instruction
system.cpu.op_class::FloatCmp                       0      0.00%     66.67% # Class of executed instruction
system.cpu.op_class::FloatCvt                       0      0.00%     66.67% # Class of executed instruction
system.cpu.op_class::FloatMult                      0      0.00%     66.67% # Class of executed instruction
system.cpu.op_class::FloatMultAcc                   0      0.00%     66.67% # Class of executed instruction
system.cpu.op_class::FloatDiv                       0      0.00%     66.67% # Class of executed instruction
system.cpu.op_class::FloatMisc                      0      0.00%     66.67% # Class of executed instruction
system.cpu.op_class::FloatSqrt                      0      0.00%     66.67% # Class of executed instruction
system.cpu.op_class::SimdAdd                        0      0.00%     66.67% # Class of executed instruction
system.cpu.op_class::SimdAddAcc                     0      0.00%     66.67% # Class of executed instruction
system.cpu.op_class::SimdAlu                        0      0.00%     66.67% # Class of executed instruction
system.cpu.op_class::SimdCmp                        0      0.00%     66.67% # Class of executed instruction
system.cpu.op_class::SimdCvt                        0      0.00%     66.67% # Class of executed instruction
system.cpu.op_class::SimdMisc                       0      0.00%     66.67% # Class of executed instruction
system.cpu.op_class::SimdMult                       0      0.00%     66.67% # Class of executed instruction
system.cpu.op_class::SimdMultAcc                    0      0.00%     66.67% # Class of executed instruction
system.cpu.op_class::SimdShift                      0      0.00%     66.67% # Class of executed instruction
system.cpu.op_class::SimdShiftAcc                   0      0.00%     66.67% # Class of executed instruction
system.cpu.op_class::SimdDiv                        0      0.00%     66.67% # Class of executed instruction
system.cpu.op_class::SimdSqrt                       0      0.00%     66.67% # Class of executed instruction
system.cpu.op_class::SimdFloatAdd                   0      0.00%     66.67% # Class of executed instruction
system.cpu.op_class::SimdFloatAlu                   0      0.00%     66.67% # Class of executed instruction
system.cpu.op_class::SimdFloatCmp                   0      0.00%     66.67% # Class of executed instruction
system.cpu.op_class::SimdFloatCvt                   0      0.00%     66.67% # Class of executed instruction
system.cpu.op_class::SimdFloatDiv                   0      0.00%     66.67% # Class of executed instruction
system.cpu.op_class::SimdFloatMisc                  0      0.00%     66.67% # Class of executed instruction
system.cpu.op_class::SimdFloatMult                  0      0.00%     66.67% # Class of executed instruction
system.cpu.op_class::SimdFloatMultAcc               0      0.00%     66.67% # Class of executed instruction
system.cpu.op_class::SimdFloatSqrt                  0      0.00%     66.67% # Class of executed instruction
system.cpu.op_class::SimdReduceAdd                  0      0.00%     66.67% # Class of executed instruction
system.cpu.op_class::SimdReduceAlu                  0      0.00%     66.67% # Class of executed instruction
system.cpu.op_class::SimdReduceCmp                  0      0.00%     66.67% # Class of executed instruction
system.cpu.op_class::SimdFloatReduceAdd             0      0.00%     66.67% # Class of executed instruction
system.cpu.op_class::SimdFloatReduceCmp             0      0.00%     66.67% # Class of executed instruction
system.cpu.op_class::SimdAes                        0      0.00%     66.67% # Class of executed instruction
system.cpu.op_class::SimdAesMix                     0      0.00%     66.67% # Class of executed instruction
system.cpu.op_class::SimdSha1Hash                   0      0.00%     66.67% # Class of executed instruction
system.cpu.op_class::SimdSha1Hash2                  0      0.00%     66.67% # Class of executed instruction
system.cpu.op_class::SimdSha256Hash                 0      0.00%     66.67% # Class of executed instruction
system.cpu.op_class::SimdSha256Hash2                0      0.00%     66.67% # Class of executed instruction
system.cpu.op_class::SimdShaSigma2                  0      0.00%     66.67% # Class of executed instruction
system.cpu.op_class::SimdShaSigma3                  0      0.00%     66.67% # Class of executed instruction
system.cpu.op_class::SimdPredAlu                    0      0.00%     66.67% # Class of executed instruction
system.cpu.op_class::MemRead                        0      0.00%     66.67% # Class of executed instruction
system.cpu.op_class::MemWrite                       7     33.33%    100.00% # Class of executed instruction
system.cpu.op_class::FloatMemRead                   0      0.00%    100.00% # Class of executed instruction
system.cpu.op_class::FloatMemWrite                  0      0.00%    100.00% # Class of executed instruction
system.cpu.op_class::IprAccess                      0      0.00%    100.00% # Class of executed instruction
system.cpu.op_class::InstPrefetch                   0      0.00%    100.00% # Class of executed instruction
system.cpu.op_class::total                         21                       # Class of executed instruction
system.cpu.workload.numSyscalls                    79                       # Number of system calls
system.membus.snoop_filter.hit_multi_requests            0                       # Number of requests hitting in the snoop filter with multiple (>1) holders of the requested data.
system.membus.snoop_filter.hit_multi_snoops            0                       # Number of snoops hitting in the snoop filter with multiple (>1) holders of the requested data.
system.membus.snoop_filter.hit_single_requests       543804                       # Number of requests hitting in the snoop filter with a single holder of the requested data.
system.membus.snoop_filter.hit_single_snoops            0                       # Number of snoops hitting in the snoop filter with a single holder of the requested data.
system.membus.snoop_filter.tot_requests       1080216                       # Total number of requests made to the snoop filter.
system.membus.snoop_filter.tot_snoops               0                       # Total number of snoops made to the snoop filter.
system.switch_cpus.branchPred.BTBCorrect            0                       # Number of correct BTB predictions (this stat may not work properly.
system.switch_cpus.branchPred.BTBHitPct           nan                       # BTB Hit Percentage
system.switch_cpus.branchPred.BTBHits               0                       # Number of BTB hits
system.switch_cpus.branchPred.BTBLookups            0                       # Number of BTB lookups
system.switch_cpus.branchPred.RASInCorrect        10450                       # Number of incorrect RAS predictions.
system.switch_cpus.branchPred.condIncorrect       718393                       # Number of conditional branches incorrect
system.switch_cpus.branchPred.condPredicted      4089055                       # Number of conditional branches predicted
system.switch_cpus.branchPred.indirectHits       978504                       # Number of indirect target hits.
system.switch_cpus.branchPred.indirectLookups      3027040                       # Number of indirect predictor lookups.
system.switch_cpus.branchPred.indirectMisses      2048536                       # Number of indirect misses.
system.switch_cpus.branchPred.lookups         5530332                       # Number of BP lookups
system.switch_cpus.branchPred.usedRAS          588029                       # Number of times the RAS was used to get a target.
system.switch_cpus.branchPredindirectMispredicted       591596                       # Number of mispredicted indirect branches.
system.switch_cpus.cc_regfile_reads          12644243                       # number of cc regfile reads
system.switch_cpus.cc_regfile_writes          8816535                       # number of cc regfile writes
system.switch_cpus.commit.amos                      0                       # Number of atomic instructions committed
system.switch_cpus.commit.branchMispredicts       771701                       # The number of times a branch was mispredicted
system.switch_cpus.commit.branches            2320534                       # Number of branches committed
system.switch_cpus.commit.bw_lim_events       1100939                       # number cycles where commit BW limit reached
system.switch_cpus.commit.commitNonSpecStalls         1363                       # The number of times commit has been forced to stall to communicate backwards
system.switch_cpus.commit.commitSquashedInsts     17187802                       # The number of squashed insts skipped by commit
system.switch_cpus.commit.committedInsts     10000002                       # Number of instructions committed
system.switch_cpus.commit.committedOps       19351828                       # Number of ops (including micro ops) committed
system.switch_cpus.commit.committed_per_cycle::samples     28116062                       # Number of insts commited each cycle
system.switch_cpus.commit.committed_per_cycle::mean     0.688284                       # Number of insts commited each cycle
system.switch_cpus.commit.committed_per_cycle::stdev     1.833673                       # Number of insts commited each cycle
system.switch_cpus.commit.committed_per_cycle::underflows            0      0.00%      0.00% # Number of insts commited each cycle
system.switch_cpus.commit.committed_per_cycle::0     22950139     81.63%     81.63% # Number of insts commited each cycle
system.switch_cpus.commit.committed_per_cycle::1      1378129      4.90%     86.53% # Number of insts commited each cycle
system.switch_cpus.commit.committed_per_cycle::2       677038      2.41%     88.94% # Number of insts commited each cycle
system.switch_cpus.commit.committed_per_cycle::3      1096169      3.90%     92.83% # Number of insts commited each cycle
system.switch_cpus.commit.committed_per_cycle::4       423059      1.50%     94.34% # Number of insts commited each cycle
system.switch_cpus.commit.committed_per_cycle::5       235955      0.84%     95.18% # Number of insts commited each cycle
system.switch_cpus.commit.committed_per_cycle::6       130845      0.47%     95.64% # Number of insts commited each cycle
system.switch_cpus.commit.committed_per_cycle::7       123789      0.44%     96.08% # Number of insts commited each cycle
system.switch_cpus.commit.committed_per_cycle::8      1100939      3.92%    100.00% # Number of insts commited each cycle
system.switch_cpus.commit.committed_per_cycle::overflows            0      0.00%    100.00% # Number of insts commited each cycle
system.switch_cpus.commit.committed_per_cycle::min_value            0                       # Number of insts commited each cycle
system.switch_cpus.commit.committed_per_cycle::max_value            8                       # Number of insts commited each cycle
system.switch_cpus.commit.committed_per_cycle::total     28116062                       # Number of insts commited each cycle
system.switch_cpus.commit.fp_insts              17342                       # Number of committed floating point instructions.
system.switch_cpus.commit.function_calls       221726                       # Number of function calls committed.
system.switch_cpus.commit.int_insts          19271403                       # Number of committed integer instructions.
system.switch_cpus.commit.loads               2691400                       # Number of loads committed
system.switch_cpus.commit.membars                 280                       # Number of memory barriers committed
system.switch_cpus.commit.op_class_0::No_OpClass        72885      0.38%      0.38% # Class of committed instruction
system.switch_cpus.commit.op_class_0::IntAlu     15126044     78.16%     78.54% # Class of committed instruction
system.switch_cpus.commit.op_class_0::IntMult          182      0.00%     78.54% # Class of committed instruction
system.switch_cpus.commit.op_class_0::IntDiv       144362      0.75%     79.29% # Class of committed instruction
system.switch_cpus.commit.op_class_0::FloatAdd          821      0.00%     79.29% # Class of committed instruction
system.switch_cpus.commit.op_class_0::FloatCmp            0      0.00%     79.29% # Class of committed instruction
system.switch_cpus.commit.op_class_0::FloatCvt         1536      0.01%     79.30% # Class of committed instruction
system.switch_cpus.commit.op_class_0::FloatMult            0      0.00%     79.30% # Class of committed instruction
system.switch_cpus.commit.op_class_0::FloatMultAcc            0      0.00%     79.30% # Class of committed instruction
system.switch_cpus.commit.op_class_0::FloatDiv            0      0.00%     79.30% # Class of committed instruction
system.switch_cpus.commit.op_class_0::FloatMisc            0      0.00%     79.30% # Class of committed instruction
system.switch_cpus.commit.op_class_0::FloatSqrt            0      0.00%     79.30% # Class of committed instruction
system.switch_cpus.commit.op_class_0::SimdAdd           26      0.00%     79.30% # Class of committed instruction
system.switch_cpus.commit.op_class_0::SimdAddAcc            0      0.00%     79.30% # Class of committed instruction
system.switch_cpus.commit.op_class_0::SimdAlu         1682      0.01%     79.31% # Class of committed instruction
system.switch_cpus.commit.op_class_0::SimdCmp            6      0.00%     79.31% # Class of committed instruction
system.switch_cpus.commit.op_class_0::SimdCvt         1430      0.01%     79.32% # Class of committed instruction
system.switch_cpus.commit.op_class_0::SimdMisc         1795      0.01%     79.32% # Class of committed instruction
system.switch_cpus.commit.op_class_0::SimdMult            0      0.00%     79.32% # Class of committed instruction
system.switch_cpus.commit.op_class_0::SimdMultAcc            0      0.00%     79.32% # Class of committed instruction
system.switch_cpus.commit.op_class_0::SimdShift           24      0.00%     79.32% # Class of committed instruction
system.switch_cpus.commit.op_class_0::SimdShiftAcc            0      0.00%     79.32% # Class of committed instruction
system.switch_cpus.commit.op_class_0::SimdDiv            0      0.00%     79.32% # Class of committed instruction
system.switch_cpus.commit.op_class_0::SimdSqrt            0      0.00%     79.32% # Class of committed instruction
system.switch_cpus.commit.op_class_0::SimdFloatAdd            0      0.00%     79.32% # Class of committed instruction
system.switch_cpus.commit.op_class_0::SimdFloatAlu            0      0.00%     79.32% # Class of committed instruction
system.switch_cpus.commit.op_class_0::SimdFloatCmp            0      0.00%     79.32% # Class of committed instruction
system.switch_cpus.commit.op_class_0::SimdFloatCvt           45      0.00%     79.33% # Class of committed instruction
system.switch_cpus.commit.op_class_0::SimdFloatDiv            1      0.00%     79.33% # Class of committed instruction
system.switch_cpus.commit.op_class_0::SimdFloatMisc            0      0.00%     79.33% # Class of committed instruction
system.switch_cpus.commit.op_class_0::SimdFloatMult           22      0.00%     79.33% # Class of committed instruction
system.switch_cpus.commit.op_class_0::SimdFloatMultAcc            0      0.00%     79.33% # Class of committed instruction
system.switch_cpus.commit.op_class_0::SimdFloatSqrt            0      0.00%     79.33% # Class of committed instruction
system.switch_cpus.commit.op_class_0::SimdReduceAdd            0      0.00%     79.33% # Class of committed instruction
system.switch_cpus.commit.op_class_0::SimdReduceAlu            0      0.00%     79.33% # Class of committed instruction
system.switch_cpus.commit.op_class_0::SimdReduceCmp            0      0.00%     79.33% # Class of committed instruction
system.switch_cpus.commit.op_class_0::SimdFloatReduceAdd            0      0.00%     79.33% # Class of committed instruction
system.switch_cpus.commit.op_class_0::SimdFloatReduceCmp            0      0.00%     79.33% # Class of committed instruction
system.switch_cpus.commit.op_class_0::SimdAes            0      0.00%     79.33% # Class of committed instruction
system.switch_cpus.commit.op_class_0::SimdAesMix            0      0.00%     79.33% # Class of committed instruction
system.switch_cpus.commit.op_class_0::SimdSha1Hash            0      0.00%     79.33% # Class of committed instruction
system.switch_cpus.commit.op_class_0::SimdSha1Hash2            0      0.00%     79.33% # Class of committed instruction
system.switch_cpus.commit.op_class_0::SimdSha256Hash            0      0.00%     79.33% # Class of committed instruction
system.switch_cpus.commit.op_class_0::SimdSha256Hash2            0      0.00%     79.33% # Class of committed instruction
system.switch_cpus.commit.op_class_0::SimdShaSigma2            0      0.00%     79.33% # Class of committed instruction
system.switch_cpus.commit.op_class_0::SimdShaSigma3            0      0.00%     79.33% # Class of committed instruction
system.switch_cpus.commit.op_class_0::SimdPredAlu            0      0.00%     79.33% # Class of committed instruction
system.switch_cpus.commit.op_class_0::MemRead      2686882     13.88%     93.21% # Class of committed instruction
system.switch_cpus.commit.op_class_0::MemWrite      1304508      6.74%     99.95% # Class of committed instruction
system.switch_cpus.commit.op_class_0::FloatMemRead         4518      0.02%     99.97% # Class of committed instruction
system.switch_cpus.commit.op_class_0::FloatMemWrite         5059      0.03%    100.00% # Class of committed instruction
system.switch_cpus.commit.op_class_0::IprAccess            0      0.00%    100.00% # Class of committed instruction
system.switch_cpus.commit.op_class_0::InstPrefetch            0      0.00%    100.00% # Class of committed instruction
system.switch_cpus.commit.op_class_0::total     19351828                       # Class of committed instruction
system.switch_cpus.commit.refs                4000967                       # Number of memory references committed
system.switch_cpus.commit.swp_count                 0                       # Number of s/w prefetches committed
system.switch_cpus.commit.vec_insts                 0                       # Number of committed Vector instructions.
system.switch_cpus.committedInsts            10000002                       # Number of Instructions Simulated
system.switch_cpus.committedOps              19351828                       # Number of Ops (including micro ops) Simulated
system.switch_cpus.cpi                       6.141400                       # CPI: Cycles Per Instruction
system.switch_cpus.cpi_total                 6.141400                       # CPI: Total CPI of All Threads
system.switch_cpus.decode.BlockedCycles       8775334                       # Number of cycles decode is blocked
system.switch_cpus.decode.DecodedInsts       42364316                       # Number of instructions handled by decode
system.switch_cpus.decode.IdleCycles         15489884                       # Number of cycles decode is idle
system.switch_cpus.decode.RunCycles           5491372                       # Number of cycles decode is running
system.switch_cpus.decode.SquashCycles         772876                       # Number of cycles decode is squashing
system.switch_cpus.decode.UnblockCycles        593407                       # Number of cycles decode is unblocking
system.switch_cpus.dtb.rdAccesses             4165702                       # TLB accesses on read requests
system.switch_cpus.dtb.rdMisses                 51342                       # TLB misses on read requests
system.switch_cpus.dtb.wrAccesses             1917233                       # TLB accesses on write requests
system.switch_cpus.dtb.wrMisses                  7388                       # TLB misses on write requests
system.switch_cpus.fetch.Branches             5530332                       # Number of branches that fetch encountered
system.switch_cpus.fetch.CacheLines           2737044                       # Number of cache lines fetched
system.switch_cpus.fetch.Cycles              13286903                       # Number of cycles fetch has run and was not squashing or blocked
system.switch_cpus.fetch.IcacheSquashes        443641                       # Number of outstanding Icache misses that were squashed
system.switch_cpus.fetch.IcacheWaitRetryStallCycles        11376                       # Number of stall cycles due to full MSHR
system.switch_cpus.fetch.Insts               22976519                       # Number of instructions fetch has processed
system.switch_cpus.fetch.MiscStallCycles        61469                       # Number of cycles fetch has spent waiting on interrupts, or bad addresses, or out of MSHRs
system.switch_cpus.fetch.PendingQuiesceStallCycles        14700                       # Number of stall cycles due to pending quiesce instructions
system.switch_cpus.fetch.PendingTrapStallCycles       339970                       # Number of stall cycles due to pending traps
system.switch_cpus.fetch.SquashCycles         1545752                       # Number of cycles fetch has spent squashing
system.switch_cpus.fetch.branchRate          0.090050                       # Number of branch fetches per cycle
system.switch_cpus.fetch.icacheStallCycles     16635581                       # Number of cycles fetch is stalled on an Icache miss
system.switch_cpus.fetch.predictedBranches      1566533                       # Number of branches that fetch has predicted taken
system.switch_cpus.fetch.rate                0.374125                       # Number of inst fetches per cycle
system.switch_cpus.fetch.rateDist::samples     31122875                       # Number of instructions fetched each cycle (Total)
system.switch_cpus.fetch.rateDist::mean      1.472262                       # Number of instructions fetched each cycle (Total)
system.switch_cpus.fetch.rateDist::stdev     2.938849                       # Number of instructions fetched each cycle (Total)
system.switch_cpus.fetch.rateDist::underflows            0      0.00%      0.00% # Number of instructions fetched each cycle (Total)
system.switch_cpus.fetch.rateDist::0         24168649     77.66%     77.66% # Number of instructions fetched each cycle (Total)
system.switch_cpus.fetch.rateDist::1           350824      1.13%     78.78% # Number of instructions fetched each cycle (Total)
system.switch_cpus.fetch.rateDist::2           306785      0.99%     79.77% # Number of instructions fetched each cycle (Total)
system.switch_cpus.fetch.rateDist::3           305233      0.98%     80.75% # Number of instructions fetched each cycle (Total)
system.switch_cpus.fetch.rateDist::4           463642      1.49%     82.24% # Number of instructions fetched each cycle (Total)
system.switch_cpus.fetch.rateDist::5           338832      1.09%     83.33% # Number of instructions fetched each cycle (Total)
system.switch_cpus.fetch.rateDist::6           372613      1.20%     84.52% # Number of instructions fetched each cycle (Total)
system.switch_cpus.fetch.rateDist::7           373842      1.20%     85.73% # Number of instructions fetched each cycle (Total)
system.switch_cpus.fetch.rateDist::8          4442455     14.27%    100.00% # Number of instructions fetched each cycle (Total)
system.switch_cpus.fetch.rateDist::overflows            0      0.00%    100.00% # Number of instructions fetched each cycle (Total)
system.switch_cpus.fetch.rateDist::min_value            0                       # Number of instructions fetched each cycle (Total)
system.switch_cpus.fetch.rateDist::max_value            8                       # Number of instructions fetched each cycle (Total)
system.switch_cpus.fetch.rateDist::total     31122875                       # Number of instructions fetched each cycle (Total)
system.switch_cpus.fp_regfile_reads             56865                       # number of floating regfile reads
system.switch_cpus.fp_regfile_writes            14332                       # number of floating regfile writes
system.switch_cpus.idleCycles                30291133                       # Total number of cycles that the CPU has spent unscheduled due to idling
system.switch_cpus.iew.branchMispredicts       968930                       # Number of branch mispredicts detected at execute
system.switch_cpus.iew.exec_branches          3161029                       # Number of branches executed
system.switch_cpus.iew.exec_nop                     0                       # number of nop insts executed
system.switch_cpus.iew.exec_rate             0.485760                       # Inst execution rate
system.switch_cpus.iew.exec_refs              6119143                       # number of memory reference insts executed
system.switch_cpus.iew.exec_stores            1916993                       # Number of stores executed
system.switch_cpus.iew.exec_swp                     0                       # number of swp insts executed
system.switch_cpus.iew.iewBlockCycles         4608277                       # Number of cycles IEW is blocking
system.switch_cpus.iew.iewDispLoadInsts       5368011                       # Number of dispatched load instructions
system.switch_cpus.iew.iewDispNonSpecInsts        10994                       # Number of dispatched non-speculative instructions
system.switch_cpus.iew.iewDispSquashedInsts        54736                       # Number of squashed instructions skipped by dispatch
system.switch_cpus.iew.iewDispStoreInsts      2515598                       # Number of dispatched store instructions
system.switch_cpus.iew.iewDispatchedInsts     36534061                       # Number of instructions dispatched to IQ
system.switch_cpus.iew.iewExecLoadInsts       4202150                       # Number of load instructions executed
system.switch_cpus.iew.iewExecSquashedInsts      1207049                       # Number of squashed instructions skipped in execute
system.switch_cpus.iew.iewExecutedInsts      29832487                       # Number of executed instructions
system.switch_cpus.iew.iewIQFullEvents          35505                       # Number of times the IQ has become full, causing a stall
system.switch_cpus.iew.iewIdleCycles                0                       # Number of cycles IEW is idle
system.switch_cpus.iew.iewLSQFullEvents        138185                       # Number of times the LSQ has become full, causing a stall
system.switch_cpus.iew.iewSquashCycles         772876                       # Number of cycles IEW is squashing
system.switch_cpus.iew.iewUnblockCycles        187297                       # Number of cycles IEW is unblocking
system.switch_cpus.iew.lsq.thread0.blockedLoads            0                       # Number of blocked loads due to partial load-store forwarding
system.switch_cpus.iew.lsq.thread0.cacheBlocked        13577                       # Number of times an access to memory failed due to the cache being blocked
system.switch_cpus.iew.lsq.thread0.forwLoads       335144                       # Number of loads that had data forwarded from stores
system.switch_cpus.iew.lsq.thread0.ignoredResponses         4508                       # Number of memory responses ignored because the instruction is squashed
system.switch_cpus.iew.lsq.thread0.invAddrLoads            0                       # Number of loads ignored due to an invalid address
system.switch_cpus.iew.lsq.thread0.invAddrSwpfs            0                       # Number of software prefetches ignored due to an invalid address
system.switch_cpus.iew.lsq.thread0.memOrderViolation         1026                       # Number of memory ordering violations
system.switch_cpus.iew.lsq.thread0.rescheduledLoads          437                       # Number of loads that were rescheduled
system.switch_cpus.iew.lsq.thread0.squashedLoads      2676587                       # Number of loads squashed
system.switch_cpus.iew.lsq.thread0.squashedStores      1206025                       # Number of stores squashed
system.switch_cpus.iew.memOrderViolationEvents         1026                       # Number of memory order violations
system.switch_cpus.iew.predictedNotTakenIncorrect       929070                       # Number of branches that were predicted not taken incorrectly
system.switch_cpus.iew.predictedTakenIncorrect        39860                       # Number of branches that were predicted taken incorrectly
system.switch_cpus.iew.wb_consumers          33131907                       # num instructions consuming a value
system.switch_cpus.iew.wb_count              29131238                       # cumulative count of insts written-back
system.switch_cpus.iew.wb_fanout             0.620825                       # average fanout of values written-back
system.switch_cpus.iew.wb_producers          20569115                       # num instructions producing a value
system.switch_cpus.iew.wb_rate               0.474342                       # insts written-back per cycle
system.switch_cpus.iew.wb_sent               29406062                       # cumulative count of insts sent to commit
system.switch_cpus.int_regfile_reads         43303487                       # number of integer regfile reads
system.switch_cpus.int_regfile_writes        24275731                       # number of integer regfile writes
system.switch_cpus.ipc                       0.162829                       # IPC: Instructions Per Cycle
system.switch_cpus.ipc_total                 0.162829                       # IPC: Total IPC of All Threads
system.switch_cpus.iq.FU_type_0::No_OpClass       351498      1.13%      1.13% # Type of FU issued
system.switch_cpus.iq.FU_type_0::IntAlu      23957291     77.18%     78.32% # Type of FU issued
system.switch_cpus.iq.FU_type_0::IntMult          347      0.00%     78.32% # Type of FU issued
system.switch_cpus.iq.FU_type_0::IntDiv        183719      0.59%     78.91% # Type of FU issued
system.switch_cpus.iq.FU_type_0::FloatAdd         1404      0.00%     78.91% # Type of FU issued
system.switch_cpus.iq.FU_type_0::FloatCmp            0      0.00%     78.91% # Type of FU issued
system.switch_cpus.iq.FU_type_0::FloatCvt        33173      0.11%     79.02% # Type of FU issued
system.switch_cpus.iq.FU_type_0::FloatMult            0      0.00%     79.02% # Type of FU issued
system.switch_cpus.iq.FU_type_0::FloatMultAcc            0      0.00%     79.02% # Type of FU issued
system.switch_cpus.iq.FU_type_0::FloatDiv            0      0.00%     79.02% # Type of FU issued
system.switch_cpus.iq.FU_type_0::FloatMisc            0      0.00%     79.02% # Type of FU issued
system.switch_cpus.iq.FU_type_0::FloatSqrt            0      0.00%     79.02% # Type of FU issued
system.switch_cpus.iq.FU_type_0::SimdAdd           34      0.00%     79.02% # Type of FU issued
system.switch_cpus.iq.FU_type_0::SimdAddAcc            0      0.00%     79.02% # Type of FU issued
system.switch_cpus.iq.FU_type_0::SimdAlu         2944      0.01%     79.03% # Type of FU issued
system.switch_cpus.iq.FU_type_0::SimdCmp            6      0.00%     79.03% # Type of FU issued
system.switch_cpus.iq.FU_type_0::SimdCvt         1967      0.01%     79.04% # Type of FU issued
system.switch_cpus.iq.FU_type_0::SimdMisc         3114      0.01%     79.05% # Type of FU issued
system.switch_cpus.iq.FU_type_0::SimdMult            0      0.00%     79.05% # Type of FU issued
system.switch_cpus.iq.FU_type_0::SimdMultAcc            0      0.00%     79.05% # Type of FU issued
system.switch_cpus.iq.FU_type_0::SimdShift           45      0.00%     79.05% # Type of FU issued
system.switch_cpus.iq.FU_type_0::SimdShiftAcc            0      0.00%     79.05% # Type of FU issued
system.switch_cpus.iq.FU_type_0::SimdDiv            0      0.00%     79.05% # Type of FU issued
system.switch_cpus.iq.FU_type_0::SimdSqrt            0      0.00%     79.05% # Type of FU issued
system.switch_cpus.iq.FU_type_0::SimdFloatAdd            0      0.00%     79.05% # Type of FU issued
system.switch_cpus.iq.FU_type_0::SimdFloatAlu            0      0.00%     79.05% # Type of FU issued
system.switch_cpus.iq.FU_type_0::SimdFloatCmp            0      0.00%     79.05% # Type of FU issued
system.switch_cpus.iq.FU_type_0::SimdFloatCvt          929      0.00%     79.05% # Type of FU issued
system.switch_cpus.iq.FU_type_0::SimdFloatDiv            2      0.00%     79.05% # Type of FU issued
system.switch_cpus.iq.FU_type_0::SimdFloatMisc            0      0.00%     79.05% # Type of FU issued
system.switch_cpus.iq.FU_type_0::SimdFloatMult          263      0.00%     79.05% # Type of FU issued
system.switch_cpus.iq.FU_type_0::SimdFloatMultAcc            0      0.00%     79.05% # Type of FU issued
system.switch_cpus.iq.FU_type_0::SimdFloatSqrt            1      0.00%     79.05% # Type of FU issued
system.switch_cpus.iq.FU_type_0::SimdReduceAdd            0      0.00%     79.05% # Type of FU issued
system.switch_cpus.iq.FU_type_0::SimdReduceAlu            0      0.00%     79.05% # Type of FU issued
system.switch_cpus.iq.FU_type_0::SimdReduceCmp            0      0.00%     79.05% # Type of FU issued
system.switch_cpus.iq.FU_type_0::SimdFloatReduceAdd            0      0.00%     79.05% # Type of FU issued
system.switch_cpus.iq.FU_type_0::SimdFloatReduceCmp            0      0.00%     79.05% # Type of FU issued
system.switch_cpus.iq.FU_type_0::SimdAes            0      0.00%     79.05% # Type of FU issued
system.switch_cpus.iq.FU_type_0::SimdAesMix            0      0.00%     79.05% # Type of FU issued
system.switch_cpus.iq.FU_type_0::SimdSha1Hash            0      0.00%     79.05% # Type of FU issued
system.switch_cpus.iq.FU_type_0::SimdSha1Hash2            0      0.00%     79.05% # Type of FU issued
system.switch_cpus.iq.FU_type_0::SimdSha256Hash            0      0.00%     79.05% # Type of FU issued
system.switch_cpus.iq.FU_type_0::SimdSha256Hash2            0      0.00%     79.05% # Type of FU issued
system.switch_cpus.iq.FU_type_0::SimdShaSigma2            0      0.00%     79.05% # Type of FU issued
system.switch_cpus.iq.FU_type_0::SimdShaSigma3            0      0.00%     79.05% # Type of FU issued
system.switch_cpus.iq.FU_type_0::SimdPredAlu            0      0.00%     79.05% # Type of FU issued
system.switch_cpus.iq.FU_type_0::MemRead      4424856     14.26%     93.31% # Type of FU issued
system.switch_cpus.iq.FU_type_0::MemWrite      2065684      6.66%     99.96% # Type of FU issued
system.switch_cpus.iq.FU_type_0::FloatMemRead         7092      0.02%     99.98% # Type of FU issued
system.switch_cpus.iq.FU_type_0::FloatMemWrite         5172      0.02%    100.00% # Type of FU issued
system.switch_cpus.iq.FU_type_0::IprAccess            0      0.00%    100.00% # Type of FU issued
system.switch_cpus.iq.FU_type_0::InstPrefetch            0      0.00%    100.00% # Type of FU issued
system.switch_cpus.iq.FU_type_0::total       31039541                       # Type of FU issued
system.switch_cpus.iq.fp_alu_accesses           57370                       # Number of floating point alu accesses
system.switch_cpus.iq.fp_inst_queue_reads       114333                       # Number of floating instruction queue reads
system.switch_cpus.iq.fp_inst_queue_wakeup_accesses        54521                       # Number of floating instruction queue wakeup accesses
system.switch_cpus.iq.fp_inst_queue_writes       113282                       # Number of floating instruction queue writes
system.switch_cpus.iq.fu_busy_cnt              497590                       # FU busy when requested
system.switch_cpus.iq.fu_busy_rate           0.016031                       # FU busy rate (busy events/executed inst)
system.switch_cpus.iq.fu_full::No_OpClass            0      0.00%      0.00% # attempts to use FU when none available
system.switch_cpus.iq.fu_full::IntAlu          459072     92.26%     92.26% # attempts to use FU when none available
system.switch_cpus.iq.fu_full::IntMult              0      0.00%     92.26% # attempts to use FU when none available
system.switch_cpus.iq.fu_full::IntDiv               0      0.00%     92.26% # attempts to use FU when none available
system.switch_cpus.iq.fu_full::FloatAdd             0      0.00%     92.26% # attempts to use FU when none available
system.switch_cpus.iq.fu_full::FloatCmp             0      0.00%     92.26% # attempts to use FU when none available
system.switch_cpus.iq.fu_full::FloatCvt           119      0.02%     92.28% # attempts to use FU when none available
system.switch_cpus.iq.fu_full::FloatMult            0      0.00%     92.28% # attempts to use FU when none available
system.switch_cpus.iq.fu_full::FloatMultAcc            0      0.00%     92.28% # attempts to use FU when none available
system.switch_cpus.iq.fu_full::FloatDiv             0      0.00%     92.28% # attempts to use FU when none available
system.switch_cpus.iq.fu_full::FloatMisc            0      0.00%     92.28% # attempts to use FU when none available
system.switch_cpus.iq.fu_full::FloatSqrt            0      0.00%     92.28% # attempts to use FU when none available
system.switch_cpus.iq.fu_full::SimdAdd              0      0.00%     92.28% # attempts to use FU when none available
system.switch_cpus.iq.fu_full::SimdAddAcc            0      0.00%     92.28% # attempts to use FU when none available
system.switch_cpus.iq.fu_full::SimdAlu            174      0.03%     92.32% # attempts to use FU when none available
system.switch_cpus.iq.fu_full::SimdCmp              0      0.00%     92.32% # attempts to use FU when none available
system.switch_cpus.iq.fu_full::SimdCvt             18      0.00%     92.32% # attempts to use FU when none available
system.switch_cpus.iq.fu_full::SimdMisc             0      0.00%     92.32% # attempts to use FU when none available
system.switch_cpus.iq.fu_full::SimdMult             0      0.00%     92.32% # attempts to use FU when none available
system.switch_cpus.iq.fu_full::SimdMultAcc            0      0.00%     92.32% # attempts to use FU when none available
system.switch_cpus.iq.fu_full::SimdShift            0      0.00%     92.32% # attempts to use FU when none available
system.switch_cpus.iq.fu_full::SimdShiftAcc            0      0.00%     92.32% # attempts to use FU when none available
system.switch_cpus.iq.fu_full::SimdDiv              0      0.00%     92.32% # attempts to use FU when none available
system.switch_cpus.iq.fu_full::SimdSqrt             0      0.00%     92.32% # attempts to use FU when none available
system.switch_cpus.iq.fu_full::SimdFloatAdd            0      0.00%     92.32% # attempts to use FU when none available
system.switch_cpus.iq.fu_full::SimdFloatAlu            0      0.00%     92.32% # attempts to use FU when none available
system.switch_cpus.iq.fu_full::SimdFloatCmp            0      0.00%     92.32% # attempts to use FU when none available
system.switch_cpus.iq.fu_full::SimdFloatCvt            0      0.00%     92.32% # attempts to use FU when none available
system.switch_cpus.iq.fu_full::SimdFloatDiv            0      0.00%     92.32% # attempts to use FU when none available
system.switch_cpus.iq.fu_full::SimdFloatMisc            0      0.00%     92.32% # attempts to use FU when none available
system.switch_cpus.iq.fu_full::SimdFloatMult            0      0.00%     92.32% # attempts to use FU when none available
system.switch_cpus.iq.fu_full::SimdFloatMultAcc            0      0.00%     92.32% # attempts to use FU when none available
system.switch_cpus.iq.fu_full::SimdFloatSqrt            0      0.00%     92.32% # attempts to use FU when none available
system.switch_cpus.iq.fu_full::SimdReduceAdd            0      0.00%     92.32% # attempts to use FU when none available
system.switch_cpus.iq.fu_full::SimdReduceAlu            0      0.00%     92.32% # attempts to use FU when none available
system.switch_cpus.iq.fu_full::SimdReduceCmp            0      0.00%     92.32% # attempts to use FU when none available
system.switch_cpus.iq.fu_full::SimdFloatReduceAdd            0      0.00%     92.32% # attempts to use FU when none available
system.switch_cpus.iq.fu_full::SimdFloatReduceCmp            0      0.00%     92.32% # attempts to use FU when none available
system.switch_cpus.iq.fu_full::SimdAes              0      0.00%     92.32% # attempts to use FU when none available
system.switch_cpus.iq.fu_full::SimdAesMix            0      0.00%     92.32% # attempts to use FU when none available
system.switch_cpus.iq.fu_full::SimdSha1Hash            0      0.00%     92.32% # attempts to use FU when none available
system.switch_cpus.iq.fu_full::SimdSha1Hash2            0      0.00%     92.32% # attempts to use FU when none available
system.switch_cpus.iq.fu_full::SimdSha256Hash            0      0.00%     92.32% # attempts to use FU when none available
system.switch_cpus.iq.fu_full::SimdSha256Hash2            0      0.00%     92.32% # attempts to use FU when none available
system.switch_cpus.iq.fu_full::SimdShaSigma2            0      0.00%     92.32% # attempts to use FU when none available
system.switch_cpus.iq.fu_full::SimdShaSigma3            0      0.00%     92.32% # attempts to use FU when none available
system.switch_cpus.iq.fu_full::SimdPredAlu            0      0.00%     92.32% # attempts to use FU when none available
system.switch_cpus.iq.fu_full::MemRead          24133      4.85%     97.17% # attempts to use FU when none available
system.switch_cpus.iq.fu_full::MemWrite         13549      2.72%     99.89% # attempts to use FU when none available
system.switch_cpus.iq.fu_full::FloatMemRead          398      0.08%     99.97% # attempts to use FU when none available
system.switch_cpus.iq.fu_full::FloatMemWrite          127      0.03%    100.00% # attempts to use FU when none available
system.switch_cpus.iq.fu_full::IprAccess            0      0.00%    100.00% # attempts to use FU when none available
system.switch_cpus.iq.fu_full::InstPrefetch            0      0.00%    100.00% # attempts to use FU when none available
system.switch_cpus.iq.int_alu_accesses       31128263                       # Number of integer alu accesses
system.switch_cpus.iq.int_inst_queue_reads     93765384                       # Number of integer instruction queue reads
system.switch_cpus.iq.int_inst_queue_wakeup_accesses     29076717                       # Number of integer instruction queue wakeup accesses
system.switch_cpus.iq.int_inst_queue_writes     53603777                       # Number of integer instruction queue writes
system.switch_cpus.iq.iqInstsAdded           36503418                       # Number of instructions added to the IQ (excludes non-spec)
system.switch_cpus.iq.iqInstsIssued          31039541                       # Number of instructions issued
system.switch_cpus.iq.iqNonSpecInstsAdded        30643                       # Number of non-speculative instructions added to the IQ
system.switch_cpus.iq.iqSquashedInstsExamined     17182091                       # Number of squashed instructions iterated over during squash; mainly for profiling
system.switch_cpus.iq.iqSquashedInstsIssued       180175                       # Number of squashed instructions issued
system.switch_cpus.iq.iqSquashedNonSpecRemoved        29280                       # Number of squashed non-spec instructions that were removed
system.switch_cpus.iq.iqSquashedOperandsExamined     23363394                       # Number of squashed operands that are examined and possibly removed from graph
system.switch_cpus.iq.issued_per_cycle::samples     31122875                       # Number of insts issued each cycle
system.switch_cpus.iq.issued_per_cycle::mean     0.997322                       # Number of insts issued each cycle
system.switch_cpus.iq.issued_per_cycle::stdev     1.948216                       # Number of insts issued each cycle
system.switch_cpus.iq.issued_per_cycle::underflows            0      0.00%      0.00% # Number of insts issued each cycle
system.switch_cpus.iq.issued_per_cycle::0     22455517     72.15%     72.15% # Number of insts issued each cycle
system.switch_cpus.iq.issued_per_cycle::1      1830413      5.88%     78.03% # Number of insts issued each cycle
system.switch_cpus.iq.issued_per_cycle::2      1534733      4.93%     82.96% # Number of insts issued each cycle
system.switch_cpus.iq.issued_per_cycle::3      1211462      3.89%     86.86% # Number of insts issued each cycle
system.switch_cpus.iq.issued_per_cycle::4      1152425      3.70%     90.56% # Number of insts issued each cycle
system.switch_cpus.iq.issued_per_cycle::5       979453      3.15%     93.71% # Number of insts issued each cycle
system.switch_cpus.iq.issued_per_cycle::6      1004619      3.23%     96.93% # Number of insts issued each cycle
system.switch_cpus.iq.issued_per_cycle::7       663427      2.13%     99.07% # Number of insts issued each cycle
system.switch_cpus.iq.issued_per_cycle::8       290826      0.93%    100.00% # Number of insts issued each cycle
system.switch_cpus.iq.issued_per_cycle::overflows            0      0.00%    100.00% # Number of insts issued each cycle
system.switch_cpus.iq.issued_per_cycle::min_value            0                       # Number of insts issued each cycle
system.switch_cpus.iq.issued_per_cycle::max_value            8                       # Number of insts issued each cycle
system.switch_cpus.iq.issued_per_cycle::total     31122875                       # Number of insts issued each cycle
system.switch_cpus.iq.rate                   0.505415                       # Inst issue rate
system.switch_cpus.iq.vec_alu_accesses              0                       # Number of vector alu accesses
system.switch_cpus.iq.vec_inst_queue_reads            0                       # Number of vector instruction queue reads
system.switch_cpus.iq.vec_inst_queue_wakeup_accesses            0                       # Number of vector instruction queue wakeup accesses
system.switch_cpus.iq.vec_inst_queue_writes            0                       # Number of vector instruction queue writes
system.switch_cpus.itb.rdAccesses                   0                       # TLB accesses on read requests
system.switch_cpus.itb.rdMisses                     0                       # TLB misses on read requests
system.switch_cpus.itb.wrAccesses             2793584                       # TLB accesses on write requests
system.switch_cpus.itb.wrMisses                 97454                       # TLB misses on write requests
system.switch_cpus.memDep0.conflictingLoads       166817                       # Number of conflicting loads.
system.switch_cpus.memDep0.conflictingStores       151095                       # Number of conflicting stores.
system.switch_cpus.memDep0.insertedLoads      5368011                       # Number of loads inserted to the mem dependence unit.
system.switch_cpus.memDep0.insertedStores      2515598                       # Number of stores inserted to the mem dependence unit.
system.switch_cpus.misc_regfile_reads        13097737                       # number of misc regfile reads
system.switch_cpus.misc_regfile_writes            865                       # number of misc regfile writes
system.switch_cpus.numCycles                 61414008                       # number of cpu cycles simulated
system.switch_cpus.numWorkItemsCompleted            0                       # number of work items this cpu completed
system.switch_cpus.numWorkItemsStarted              0                       # number of work items this cpu started
system.switch_cpus.rename.BlockCycles         7022745                       # Number of cycles rename is blocking
system.switch_cpus.rename.CommittedMaps      22783330                       # Number of HB maps that are committed
system.switch_cpus.rename.FullRegisterEvents           23                       # Number of times there has been no free registers
system.switch_cpus.rename.IQFullEvents         464716                       # Number of times rename has blocked due to IQ full
system.switch_cpus.rename.IdleCycles         15846395                       # Number of cycles rename is idle
system.switch_cpus.rename.LQFullEvents         357267                       # Number of times rename has blocked due to LQ full
system.switch_cpus.rename.ROBFullEvents        106926                       # Number of times rename has blocked due to ROB full
system.switch_cpus.rename.RenameLookups     100446311                       # Number of register rename lookups that rename has made
system.switch_cpus.rename.RenamedInsts       40345110                       # Number of instructions processed by rename
system.switch_cpus.rename.RenamedOperands     45118566                       # Number of destination operands rename has renamed
system.switch_cpus.rename.RunCycles           5637890                       # Number of cycles rename is running
system.switch_cpus.rename.SQFullEvents         820679                       # Number of times rename has blocked due to SQ full
system.switch_cpus.rename.SquashCycles         772876                       # Number of cycles rename is squashing
system.switch_cpus.rename.UnblockCycles       1779371                       # Number of cycles rename is unblocking
system.switch_cpus.rename.UndoneMaps         22335057                       # Number of HB maps that are undone due to squashing
system.switch_cpus.rename.fp_rename_lookups        75118                       # Number of floating rename lookups
system.switch_cpus.rename.int_rename_lookups     62841118                       # Number of integer rename lookups
system.switch_cpus.rename.serializeStallCycles        63597                       # count of cycles rename stalled for serializing inst
system.switch_cpus.rename.serializingInsts         1495                       # count of serializing insts renamed
system.switch_cpus.rename.skidInsts           2111819                       # count of insts added to the skid buffer
system.switch_cpus.rename.tempSerializingInsts         1457                       # count of temporary serializing insts renamed
system.switch_cpus.rob.rob_reads             63548929                       # The number of ROB reads
system.switch_cpus.rob.rob_writes            76128690                       # The number of ROB writes
system.switch_cpus.timesIdled                  424505                       # Number of times that the entire CPU went into an idle state and unscheduled itself
system.tol2bus.snoop_filter.hit_multi_requests        33625                       # Number of requests hitting in the snoop filter with multiple (>1) holders of the requested data.
system.tol2bus.snoop_filter.hit_multi_snoops         8159                       # Number of snoops hitting in the snoop filter with multiple (>1) holders of the requested data.
system.tol2bus.snoop_filter.hit_single_requests      1018473                       # Number of requests hitting in the snoop filter with a single holder of the requested data.
system.tol2bus.snoop_filter.hit_single_snoops       500316                       # Number of snoops hitting in the snoop filter with a single holder of the requested data.
system.tol2bus.snoop_filter.tot_requests      2042021                       # Total number of requests made to the snoop filter.
system.tol2bus.snoop_filter.tot_snoops         508475                       # Total number of snoops made to the snoop filter.
system.membus.trans_dist::ReadResp             511565                       # Transaction distribution
system.membus.trans_dist::WritebackDirty        44180                       # Transaction distribution
system.membus.trans_dist::CleanEvict           491765                       # Transaction distribution
system.membus.trans_dist::UpgradeReq             2916                       # Transaction distribution
system.membus.trans_dist::ReadExReq             29789                       # Transaction distribution
system.membus.trans_dist::ReadExResp            29789                       # Transaction distribution
system.membus.trans_dist::ReadSharedReq        511566                       # Transaction distribution
system.membus.pkt_count_system.l2.mem_side::system.mem_ctrls.port      1621570                       # Packet count per connected master and slave (bytes)
system.membus.pkt_count_system.l2.mem_side::total      1621570                       # Packet count per connected master and slave (bytes)
system.membus.pkt_count::total                1621570                       # Packet count per connected master and slave (bytes)
system.membus.pkt_size_system.l2.mem_side::system.mem_ctrls.port     37474176                       # Cumulative packet size per connected master and slave (bytes)
system.membus.pkt_size_system.l2.mem_side::total     37474176                       # Cumulative packet size per connected master and slave (bytes)
system.membus.pkt_size::total                37474176                       # Cumulative packet size per connected master and slave (bytes)
system.membus.snoops                                0                       # Total snoops (count)
system.membus.snoopTraffic                          0                       # Total snoop traffic (bytes)
system.membus.snoop_fanout::samples            544271                       # Request fanout histogram
system.membus.snoop_fanout::mean                    0                       # Request fanout histogram
system.membus.snoop_fanout::stdev                   0                       # Request fanout histogram
system.membus.snoop_fanout::underflows              0      0.00%      0.00% # Request fanout histogram
system.membus.snoop_fanout::0                  544271    100.00%    100.00% # Request fanout histogram
system.membus.snoop_fanout::1                       0      0.00%    100.00% # Request fanout histogram
system.membus.snoop_fanout::overflows               0      0.00%    100.00% # Request fanout histogram
system.membus.snoop_fanout::min_value               0                       # Request fanout histogram
system.membus.snoop_fanout::max_value               0                       # Request fanout histogram
system.membus.snoop_fanout::total              544271                       # Request fanout histogram
system.membus.reqLayer2.occupancy          1415692501                       # Layer occupancy (ticks)
system.membus.reqLayer2.utilization               4.6                       # Layer utilization (%)
system.membus.respLayer1.occupancy         2914227000                       # Layer occupancy (ticks)
system.membus.respLayer1.utilization              9.5                       # Layer utilization (%)
system.membus.power_state.pwrStateResidencyTicks::UNDEFINED  30707014500                       # Cumulative time (in ticks) in various power states
system.switch_cpus.dtb.walker.power_state.pwrStateResidencyTicks::UNDEFINED  30707014500                       # Cumulative time (in ticks) in various power states
system.switch_cpus.itb.walker.power_state.pwrStateResidencyTicks::UNDEFINED  30707014500                       # Cumulative time (in ticks) in various power states
system.switch_cpus.power_state.pwrStateResidencyTicks::OFF  30707014500                       # Cumulative time (in ticks) in various power states
system.tol2bus.trans_dist::ReadResp            963826                       # Transaction distribution
system.tol2bus.trans_dist::WritebackDirty       171620                       # Transaction distribution
system.tol2bus.trans_dist::WritebackClean       642676                       # Transaction distribution
system.tol2bus.trans_dist::CleanEvict         1110671                       # Transaction distribution
system.tol2bus.trans_dist::UpgradeReq            5725                       # Transaction distribution
system.tol2bus.trans_dist::UpgradeResp           5725                       # Transaction distribution
system.tol2bus.trans_dist::ReadExReq            56178                       # Transaction distribution
system.tol2bus.trans_dist::ReadExResp           56178                       # Transaction distribution
system.tol2bus.trans_dist::ReadCleanReq        646326                       # Transaction distribution
system.tol2bus.trans_dist::ReadSharedReq       317502                       # Transaction distribution
system.tol2bus.pkt_count_system.cpu.icache.mem_side::system.l2.cpu_side      1929028                       # Packet count per connected master and slave (bytes)
system.tol2bus.pkt_count_system.cpu.dcache.mem_side::system.l2.cpu_side      1132422                       # Packet count per connected master and slave (bytes)
system.tol2bus.pkt_count::total               3061450                       # Packet count per connected master and slave (bytes)
system.tol2bus.pkt_size_system.cpu.icache.mem_side::system.l2.cpu_side     82092928                       # Cumulative packet size per connected master and slave (bytes)
system.tol2bus.pkt_size_system.cpu.dcache.mem_side::system.l2.cpu_side     32071552                       # Cumulative packet size per connected master and slave (bytes)
system.tol2bus.pkt_size::total              114164480                       # Cumulative packet size per connected master and slave (bytes)
system.tol2bus.snoops                          914977                       # Total snoops (count)
system.tol2bus.snoopTraffic                   3230720                       # Total snoop traffic (bytes)
system.tol2bus.snoop_fanout::samples          1934408                       # Request fanout histogram
system.tol2bus.snoop_fanout::mean            0.284459                       # Request fanout histogram
system.tol2bus.snoop_fanout::stdev           0.460410                       # Request fanout histogram
system.tol2bus.snoop_fanout::underflows             0      0.00%      0.00% # Request fanout histogram
system.tol2bus.snoop_fanout::0                1392308     71.98%     71.98% # Request fanout histogram
system.tol2bus.snoop_fanout::1                 533941     27.60%     99.58% # Request fanout histogram
system.tol2bus.snoop_fanout::2                   8159      0.42%    100.00% # Request fanout histogram
system.tol2bus.snoop_fanout::3                      0      0.00%    100.00% # Request fanout histogram
system.tol2bus.snoop_fanout::4                      0      0.00%    100.00% # Request fanout histogram
system.tol2bus.snoop_fanout::overflows              0      0.00%    100.00% # Request fanout histogram
system.tol2bus.snoop_fanout::min_value              0                       # Request fanout histogram
system.tol2bus.snoop_fanout::max_value              2                       # Request fanout histogram
system.tol2bus.snoop_fanout::total            1934408                       # Request fanout histogram
system.tol2bus.reqLayer0.occupancy         1791126496                       # Layer occupancy (ticks)
system.tol2bus.reqLayer0.utilization              5.8                       # Layer utilization (%)
system.tol2bus.respLayer1.occupancy         563741269                       # Layer occupancy (ticks)
system.tol2bus.respLayer1.utilization             1.8                       # Layer utilization (%)
system.tol2bus.respLayer0.occupancy         970171626                       # Layer occupancy (ticks)
system.tol2bus.respLayer0.utilization             3.2                       # Layer utilization (%)
system.tol2bus.power_state.pwrStateResidencyTicks::UNDEFINED  30707014500                       # Cumulative time (in ticks) in various power states
system.voltage_domain.voltage                       1                       # Voltage in Volts
system.clk_domain.clock                          1000                       # Clock period in ticks
system.l2.demand_hits::.switch_cpus.inst       294503                       # number of demand (read+write) hits
system.l2.demand_hits::.switch_cpus.data       177480                       # number of demand (read+write) hits
system.l2.demand_hits::total                   471983                       # number of demand (read+write) hits
system.l2.overall_hits::.switch_cpus.inst       294503                       # number of overall hits
system.l2.overall_hits::.switch_cpus.data       177480                       # number of overall hits
system.l2.overall_hits::total                  471983                       # number of overall hits
system.l2.demand_misses::.cpu.inst                  2                       # number of demand (read+write) misses
system.l2.demand_misses::.cpu.data                  2                       # number of demand (read+write) misses
system.l2.demand_misses::.switch_cpus.inst       345521                       # number of demand (read+write) misses
system.l2.demand_misses::.switch_cpus.data       196198                       # number of demand (read+write) misses
system.l2.demand_misses::total                 541723                       # number of demand (read+write) misses
system.l2.overall_misses::.cpu.inst                 2                       # number of overall misses
system.l2.overall_misses::.cpu.data                 2                       # number of overall misses
system.l2.overall_misses::.switch_cpus.inst       345521                       # number of overall misses
system.l2.overall_misses::.switch_cpus.data       196198                       # number of overall misses
system.l2.overall_misses::total                541723                       # number of overall misses
system.l2.demand_miss_latency::.switch_cpus.inst  28893247000                       # number of demand (read+write) miss cycles
system.l2.demand_miss_latency::.switch_cpus.data  16801244500                       # number of demand (read+write) miss cycles
system.l2.demand_miss_latency::total      45694491500                       # number of demand (read+write) miss cycles
system.l2.overall_miss_latency::.switch_cpus.inst  28893247000                       # number of overall miss cycles
system.l2.overall_miss_latency::.switch_cpus.data  16801244500                       # number of overall miss cycles
system.l2.overall_miss_latency::total     45694491500                       # number of overall miss cycles
system.l2.demand_accesses::.cpu.inst                2                       # number of demand (read+write) accesses
system.l2.demand_accesses::.cpu.data                2                       # number of demand (read+write) accesses
system.l2.demand_accesses::.switch_cpus.inst       640024                       # number of demand (read+write) accesses
system.l2.demand_accesses::.switch_cpus.data       373678                       # number of demand (read+write) accesses
system.l2.demand_accesses::total              1013706                       # number of demand (read+write) accesses
system.l2.overall_accesses::.cpu.inst               2                       # number of overall (read+write) accesses
system.l2.overall_accesses::.cpu.data               2                       # number of overall (read+write) accesses
system.l2.overall_accesses::.switch_cpus.inst       640024                       # number of overall (read+write) accesses
system.l2.overall_accesses::.switch_cpus.data       373678                       # number of overall (read+write) accesses
system.l2.overall_accesses::total             1013706                       # number of overall (read+write) accesses
system.l2.demand_miss_rate::.cpu.inst               1                       # miss rate for demand accesses
system.l2.demand_miss_rate::.cpu.data               1                       # miss rate for demand accesses
system.l2.demand_miss_rate::.switch_cpus.inst     0.539856                       # miss rate for demand accesses
system.l2.demand_miss_rate::.switch_cpus.data     0.525046                       # miss rate for demand accesses
system.l2.demand_miss_rate::total            0.534399                       # miss rate for demand accesses
system.l2.overall_miss_rate::.cpu.inst              1                       # miss rate for overall accesses
system.l2.overall_miss_rate::.cpu.data              1                       # miss rate for overall accesses
system.l2.overall_miss_rate::.switch_cpus.inst     0.539856                       # miss rate for overall accesses
system.l2.overall_miss_rate::.switch_cpus.data     0.525046                       # miss rate for overall accesses
system.l2.overall_miss_rate::total           0.534399                       # miss rate for overall accesses
system.l2.demand_avg_miss_latency::.switch_cpus.inst 83622.260297                       # average overall miss latency
system.l2.demand_avg_miss_latency::.switch_cpus.data 85634.127259                       # average overall miss latency
system.l2.demand_avg_miss_latency::total 84350.288801                       # average overall miss latency
system.l2.overall_avg_miss_latency::.switch_cpus.inst 83622.260297                       # average overall miss latency
system.l2.overall_avg_miss_latency::.switch_cpus.data 85634.127259                       # average overall miss latency
system.l2.overall_avg_miss_latency::total 84350.288801                       # average overall miss latency
system.l2.blocked_cycles::no_mshrs                  0                       # number of cycles access was blocked
system.l2.blocked_cycles::no_targets                0                       # number of cycles access was blocked
system.l2.blocked::no_mshrs                         0                       # number of cycles access was blocked
system.l2.blocked::no_targets                       0                       # number of cycles access was blocked
system.l2.avg_blocked_cycles::no_mshrs            nan                       # average number of cycles each access was blocked
system.l2.avg_blocked_cycles::no_targets          nan                       # average number of cycles each access was blocked
system.l2.writebacks::.writebacks               44180                       # number of writebacks
system.l2.writebacks::total                     44180                       # number of writebacks
system.l2.demand_mshr_hits::.switch_cpus.inst          337                       # number of demand (read+write) MSHR hits
system.l2.demand_mshr_hits::.switch_cpus.data           14                       # number of demand (read+write) MSHR hits
system.l2.demand_mshr_hits::total                 351                       # number of demand (read+write) MSHR hits
system.l2.overall_mshr_hits::.switch_cpus.inst          337                       # number of overall MSHR hits
system.l2.overall_mshr_hits::.switch_cpus.data           14                       # number of overall MSHR hits
system.l2.overall_mshr_hits::total                351                       # number of overall MSHR hits
system.l2.demand_mshr_misses::.switch_cpus.inst       345184                       # number of demand (read+write) MSHR misses
system.l2.demand_mshr_misses::.switch_cpus.data       196184                       # number of demand (read+write) MSHR misses
system.l2.demand_mshr_misses::total            541368                       # number of demand (read+write) MSHR misses
system.l2.overall_mshr_misses::.switch_cpus.inst       345184                       # number of overall MSHR misses
system.l2.overall_mshr_misses::.switch_cpus.data       196184                       # number of overall MSHR misses
system.l2.overall_mshr_misses::total           541368                       # number of overall MSHR misses
system.l2.demand_mshr_miss_latency::.switch_cpus.inst  25423453516                       # number of demand (read+write) MSHR miss cycles
system.l2.demand_mshr_miss_latency::.switch_cpus.data  14838794506                       # number of demand (read+write) MSHR miss cycles
system.l2.demand_mshr_miss_latency::total  40262248022                       # number of demand (read+write) MSHR miss cycles
system.l2.overall_mshr_miss_latency::.switch_cpus.inst  25423453516                       # number of overall MSHR miss cycles
system.l2.overall_mshr_miss_latency::.switch_cpus.data  14838794506                       # number of overall MSHR miss cycles
system.l2.overall_mshr_miss_latency::total  40262248022                       # number of overall MSHR miss cycles
system.l2.demand_mshr_miss_rate::.switch_cpus.inst     0.539330                       # mshr miss rate for demand accesses
system.l2.demand_mshr_miss_rate::.switch_cpus.data     0.525008                       # mshr miss rate for demand accesses
system.l2.demand_mshr_miss_rate::total       0.534048                       # mshr miss rate for demand accesses
system.l2.overall_mshr_miss_rate::.switch_cpus.inst     0.539330                       # mshr miss rate for overall accesses
system.l2.overall_mshr_miss_rate::.switch_cpus.data     0.525008                       # mshr miss rate for overall accesses
system.l2.overall_mshr_miss_rate::total      0.534048                       # mshr miss rate for overall accesses
system.l2.demand_avg_mshr_miss_latency::.switch_cpus.inst 73651.888604                       # average overall mshr miss latency
system.l2.demand_avg_mshr_miss_latency::.switch_cpus.data 75637.128950                       # average overall mshr miss latency
system.l2.demand_avg_mshr_miss_latency::total 74371.311237                       # average overall mshr miss latency
system.l2.overall_avg_mshr_miss_latency::.switch_cpus.inst 73651.888604                       # average overall mshr miss latency
system.l2.overall_avg_mshr_miss_latency::.switch_cpus.data 75637.128950                       # average overall mshr miss latency
system.l2.overall_avg_mshr_miss_latency::total 74371.311237                       # average overall mshr miss latency
system.l2.replacements                         908677                       # number of replacements
system.l2.WritebackDirty_hits::.writebacks       127440                       # number of WritebackDirty hits
system.l2.WritebackDirty_hits::total           127440                       # number of WritebackDirty hits
system.l2.WritebackDirty_accesses::.writebacks       127440                       # number of WritebackDirty accesses(hits+misses)
system.l2.WritebackDirty_accesses::total       127440                       # number of WritebackDirty accesses(hits+misses)
system.l2.WritebackClean_hits::.writebacks       638002                       # number of WritebackClean hits
system.l2.WritebackClean_hits::total           638002                       # number of WritebackClean hits
system.l2.WritebackClean_accesses::.writebacks       638002                       # number of WritebackClean accesses(hits+misses)
system.l2.WritebackClean_accesses::total       638002                       # number of WritebackClean accesses(hits+misses)
system.l2.CleanEvict_mshr_misses::.writebacks       131773                       # number of CleanEvict MSHR misses
system.l2.CleanEvict_mshr_misses::total        131773                       # number of CleanEvict MSHR misses
system.l2.CleanEvict_mshr_miss_rate::.writebacks          inf                       # mshr miss rate for CleanEvict accesses
system.l2.CleanEvict_mshr_miss_rate::total          inf                       # mshr miss rate for CleanEvict accesses
system.l2.UpgradeReq_hits::.switch_cpus.data         2825                       # number of UpgradeReq hits
system.l2.UpgradeReq_hits::total                 2825                       # number of UpgradeReq hits
system.l2.UpgradeReq_misses::.switch_cpus.data         2900                       # number of UpgradeReq misses
system.l2.UpgradeReq_misses::total               2900                       # number of UpgradeReq misses
system.l2.UpgradeReq_miss_latency::.switch_cpus.data      3580000                       # number of UpgradeReq miss cycles
system.l2.UpgradeReq_miss_latency::total      3580000                       # number of UpgradeReq miss cycles
system.l2.UpgradeReq_accesses::.switch_cpus.data         5725                       # number of UpgradeReq accesses(hits+misses)
system.l2.UpgradeReq_accesses::total             5725                       # number of UpgradeReq accesses(hits+misses)
system.l2.UpgradeReq_miss_rate::.switch_cpus.data     0.506550                       # miss rate for UpgradeReq accesses
system.l2.UpgradeReq_miss_rate::total        0.506550                       # miss rate for UpgradeReq accesses
system.l2.UpgradeReq_avg_miss_latency::.switch_cpus.data  1234.482759                       # average UpgradeReq miss latency
system.l2.UpgradeReq_avg_miss_latency::total  1234.482759                       # average UpgradeReq miss latency
system.l2.UpgradeReq_mshr_misses::.switch_cpus.data         2900                       # number of UpgradeReq MSHR misses
system.l2.UpgradeReq_mshr_misses::total          2900                       # number of UpgradeReq MSHR misses
system.l2.UpgradeReq_mshr_miss_latency::.switch_cpus.data     56784000                       # number of UpgradeReq MSHR miss cycles
system.l2.UpgradeReq_mshr_miss_latency::total     56784000                       # number of UpgradeReq MSHR miss cycles
system.l2.UpgradeReq_mshr_miss_rate::.switch_cpus.data     0.506550                       # mshr miss rate for UpgradeReq accesses
system.l2.UpgradeReq_mshr_miss_rate::total     0.506550                       # mshr miss rate for UpgradeReq accesses
system.l2.UpgradeReq_avg_mshr_miss_latency::.switch_cpus.data 19580.689655                       # average UpgradeReq mshr miss latency
system.l2.UpgradeReq_avg_mshr_miss_latency::total 19580.689655                       # average UpgradeReq mshr miss latency
system.l2.ReadExReq_hits::.switch_cpus.data        26373                       # number of ReadExReq hits
system.l2.ReadExReq_hits::total                 26373                       # number of ReadExReq hits
[...]
system.cpu.itb_walker_cache.blocked_cycles::no_mshrs            0                       # number of cycles access was blocked
system.cpu.itb_walker_cache.blocked_cycles::no_targets            0                       # number of cycles access was blocked
system.cpu.itb_walker_cache.blocked::no_mshrs            0                       # number of cycles access was blocked
system.cpu.itb_walker_cache.blocked::no_targets            0                       # number of cycles access was blocked
system.cpu.itb_walker_cache.avg_blocked_cycles::no_mshrs          nan                       # average number of cycles each access was blocked
system.cpu.itb_walker_cache.avg_blocked_cycles::no_targets          nan                       # average number of cycles each access was blocked
system.cpu.itb_walker_cache.replacements            0                       # number of replacements
system.cpu.itb_walker_cache.power_state.pwrStateResidencyTicks::UNDEFINED  33116883500                       # Cumulative time (in ticks) in various power states
system.cpu.itb_walker_cache.tags.tagsinuse            0                       # Cycle average of tags in use
system.cpu.itb_walker_cache.tags.total_refs            0                       # Total number of references to valid blocks.
system.cpu.itb_walker_cache.tags.sampled_refs            0                       # Sample count of references to valid blocks.
system.cpu.itb_walker_cache.tags.avg_refs          nan                       # Average number of references to valid blocks.
system.cpu.itb_walker_cache.tags.warmup_cycle            0                       # Cycle when the warmup percentage was hit.
system.cpu.itb_walker_cache.tags.tag_accesses            0                       # Number of tag accesses
system.cpu.itb_walker_cache.tags.data_accesses            0                       # Number of data accesses
system.cpu.itb_walker_cache.tags.power_state.pwrStateResidencyTicks::UNDEFINED  33116883500                       # Cumulative time (in ticks) in various power states
system.cpu.itb.walker.power_state.pwrStateResidencyTicks::UNDEFINED  33116883500                       # Cumulative time (in ticks) in various power states
system.cpu.dtb_walker_cache.blocked_cycles::no_mshrs            0                       # number of cycles access was blocked
system.cpu.dtb_walker_cache.blocked_cycles::no_targets            0                       # number of cycles access was blocked
system.cpu.dtb_walker_cache.blocked::no_mshrs            0                       # number of cycles access was blocked
system.cpu.dtb_walker_cache.blocked::no_targets            0                       # number of cycles access was blocked
system.cpu.dtb_walker_cache.avg_blocked_cycles::no_mshrs          nan                       # average number of cycles each access was blocked
system.cpu.dtb_walker_cache.avg_blocked_cycles::no_targets          nan                       # average number of cycles each access was blocked
system.cpu.dtb_walker_cache.replacements            0                       # number of replacements
system.cpu.dtb_walker_cache.power_state.pwrStateResidencyTicks::UNDEFINED  33116883500                       # Cumulative time (in ticks) in various power states
system.cpu.dtb_walker_cache.tags.tagsinuse            0                       # Cycle average of tags in use
system.cpu.dtb_walker_cache.tags.total_refs            0                       # Total number of references to valid blocks.
system.cpu.dtb_walker_cache.tags.sampled_refs            0                       # Sample count of references to valid blocks.
system.cpu.dtb_walker_cache.tags.avg_refs          nan                       # Average number of references to valid blocks.
system.cpu.dtb_walker_cache.tags.warmup_cycle            0                       # Cycle when the warmup percentage was hit.
system.cpu.dtb_walker_cache.tags.tag_accesses            0                       # Number of tag accesses
system.cpu.dtb_walker_cache.tags.data_accesses            0                       # Number of data accesses
system.cpu.dtb_walker_cache.tags.power_state.pwrStateResidencyTicks::UNDEFINED  33116883500                       # Cumulative time (in ticks) in various power states
system.cpu.dcache.demand_hits::.cpu.data            5                       # number of demand (read+write) hits
system.cpu.dcache.demand_hits::.switch_cpus.data      4884964                       # number of demand (read+write) hits
system.cpu.dcache.demand_hits::total          4884969                       # number of demand (read+write) hits
system.cpu.dcache.overall_hits::.cpu.data            5                       # number of overall hits
system.cpu.dcache.overall_hits::.switch_cpus.data      4884964                       # number of overall hits
system.cpu.dcache.overall_hits::total         4884969                       # number of overall hits
system.cpu.dcache.demand_misses::.cpu.data            2                       # number of demand (read+write) misses
system.cpu.dcache.demand_misses::.switch_cpus.data       709117                       # number of demand (read+write) misses
system.cpu.dcache.demand_misses::total         709119                       # number of demand (read+write) misses
system.cpu.dcache.overall_misses::.cpu.data            2                       # number of overall misses
system.cpu.dcache.overall_misses::.switch_cpus.data       709117                       # number of overall misses
system.cpu.dcache.overall_misses::total        709119                       # number of overall misses
system.cpu.dcache.demand_miss_latency::.switch_cpus.data  36320698329                       # number of demand (read+write) miss cycles
system.cpu.dcache.demand_miss_latency::total  36320698329                       # number of demand (read+write) miss cycles
system.cpu.dcache.overall_miss_latency::.switch_cpus.data  36320698329                       # number of overall miss cycles
system.cpu.dcache.overall_miss_latency::total  36320698329                       # number of overall miss cycles
system.cpu.dcache.demand_accesses::.cpu.data            7                       # number of demand (read+write) accesses
system.cpu.dcache.demand_accesses::.switch_cpus.data      5594081                       # number of demand (read+write) accesses
system.cpu.dcache.demand_accesses::total      5594088                       # number of demand (read+write) accesses
system.cpu.dcache.overall_accesses::.cpu.data            7                       # number of overall (read+write) accesses
system.cpu.dcache.overall_accesses::.switch_cpus.data      5594081                       # number of overall (read+write) accesses
system.cpu.dcache.overall_accesses::total      5594088                       # number of overall (read+write) accesses
system.cpu.dcache.demand_miss_rate::.cpu.data     0.285714                       # miss rate for demand accesses
system.cpu.dcache.demand_miss_rate::.switch_cpus.data     0.126762                       # miss rate for demand accesses
system.cpu.dcache.demand_miss_rate::total     0.126762                       # miss rate for demand accesses
system.cpu.dcache.overall_miss_rate::.cpu.data     0.285714                       # miss rate for overall accesses
system.cpu.dcache.overall_miss_rate::.switch_cpus.data     0.126762                       # miss rate for overall accesses
system.cpu.dcache.overall_miss_rate::total     0.126762                       # miss rate for overall accesses
system.cpu.dcache.demand_avg_miss_latency::.switch_cpus.data 51219.613024                       # average overall miss latency
system.cpu.dcache.demand_avg_miss_latency::total 51219.468565                       # average overall miss latency
system.cpu.dcache.overall_avg_miss_latency::.switch_cpus.data 51219.613024                       # average overall miss latency
system.cpu.dcache.overall_avg_miss_latency::total 51219.468565                       # average overall miss latency
system.cpu.dcache.blocked_cycles::no_mshrs       522865                       # number of cycles access was blocked
system.cpu.dcache.blocked_cycles::no_targets       135758                       # number of cycles access was blocked
system.cpu.dcache.blocked::no_mshrs             18051                       # number of cycles access was blocked
system.cpu.dcache.blocked::no_targets            1053                       # number of cycles access was blocked
system.cpu.dcache.avg_blocked_cycles::no_mshrs    28.965985                       # average number of cycles each access was blocked
system.cpu.dcache.avg_blocked_cycles::no_targets   128.924976                       # average number of cycles each access was blocked
system.cpu.dcache.writebacks::.writebacks       134825                       # number of writebacks
system.cpu.dcache.writebacks::total            134825                       # number of writebacks
system.cpu.dcache.demand_mshr_hits::.switch_cpus.data       290560                       # number of demand (read+write) MSHR hits
system.cpu.dcache.demand_mshr_hits::total       290560                       # number of demand (read+write) MSHR hits
system.cpu.dcache.overall_mshr_hits::.switch_cpus.data       290560                       # number of overall MSHR hits
system.cpu.dcache.overall_mshr_hits::total       290560                       # number of overall MSHR hits
system.cpu.dcache.demand_mshr_misses::.switch_cpus.data       418557                       # number of demand (read+write) MSHR misses
system.cpu.dcache.demand_mshr_misses::total       418557                       # number of demand (read+write) MSHR misses
system.cpu.dcache.overall_mshr_misses::.switch_cpus.data       418557                       # number of overall MSHR misses
system.cpu.dcache.overall_mshr_misses::total       418557                       # number of overall MSHR misses
system.cpu.dcache.demand_mshr_miss_latency::.switch_cpus.data  21698164840                       # number of demand (read+write) MSHR miss cycles
system.cpu.dcache.demand_mshr_miss_latency::total  21698164840                       # number of demand (read+write) MSHR miss cycles
system.cpu.dcache.overall_mshr_miss_latency::.switch_cpus.data  21698164840                       # number of overall MSHR miss cycles
system.cpu.dcache.overall_mshr_miss_latency::total  21698164840                       # number of overall MSHR miss cycles
system.cpu.dcache.demand_mshr_miss_rate::.switch_cpus.data     0.074821                       # mshr miss rate for demand accesses
system.cpu.dcache.demand_mshr_miss_rate::total     0.074821                       # mshr miss rate for demand accesses
system.cpu.dcache.overall_mshr_miss_rate::.switch_cpus.data     0.074821                       # mshr miss rate for overall accesses
system.cpu.dcache.overall_mshr_miss_rate::total     0.074821                       # mshr miss rate for overall accesses
system.cpu.dcache.demand_avg_mshr_miss_latency::.switch_cpus.data 51840.406062                       # average overall mshr miss latency
system.cpu.dcache.demand_avg_mshr_miss_latency::total 51840.406062                       # average overall mshr miss latency
system.cpu.dcache.overall_avg_mshr_miss_latency::.switch_cpus.data 51840.406062                       # average overall mshr miss latency
system.cpu.dcache.overall_avg_mshr_miss_latency::total 51840.406062                       # average overall mshr miss latency
system.cpu.dcache.replacements                 412530                       # number of replacements
system.cpu.dcache.ReadReq_hits::.switch_cpus.data      3532429                       # number of ReadReq hits
system.cpu.dcache.ReadReq_hits::total         3532429                       # number of ReadReq hits
system.cpu.dcache.ReadReq_misses::.switch_cpus.data       643417                       # number of ReadReq misses
system.cpu.dcache.ReadReq_misses::total        643417                       # number of ReadReq misses
system.cpu.dcache.ReadReq_miss_latency::.switch_cpus.data  33300004000                       # number of ReadReq miss cycles
system.cpu.dcache.ReadReq_miss_latency::total  33300004000                       # number of ReadReq miss cycles
system.cpu.dcache.ReadReq_accesses::.switch_cpus.data      4175846                       # number of ReadReq accesses(hits+misses)
system.cpu.dcache.ReadReq_accesses::total      4175846                       # number of ReadReq accesses(hits+misses)
system.cpu.dcache.ReadReq_miss_rate::.switch_cpus.data     0.154081                       # miss rate for ReadReq accesses
system.cpu.dcache.ReadReq_miss_rate::total     0.154081                       # miss rate for ReadReq accesses
system.cpu.dcache.ReadReq_avg_miss_latency::.switch_cpus.data 51754.933426                       # average ReadReq miss latency
system.cpu.dcache.ReadReq_avg_miss_latency::total 51754.933426                       # average ReadReq miss latency
system.cpu.dcache.ReadReq_mshr_hits::.switch_cpus.data       290151                       # number of ReadReq MSHR hits
system.cpu.dcache.ReadReq_mshr_hits::total       290151                       # number of ReadReq MSHR hits
system.cpu.dcache.ReadReq_mshr_misses::.switch_cpus.data       353266                       # number of ReadReq MSHR misses
system.cpu.dcache.ReadReq_mshr_misses::total       353266                       # number of ReadReq MSHR misses
system.cpu.dcache.ReadReq_mshr_miss_latency::.switch_cpus.data  18757516000                       # number of ReadReq MSHR miss cycles
system.cpu.dcache.ReadReq_mshr_miss_latency::total  18757516000                       # number of ReadReq MSHR miss cycles
system.cpu.dcache.ReadReq_mshr_miss_rate::.switch_cpus.data     0.084597                       # mshr miss rate for ReadReq accesses
system.cpu.dcache.ReadReq_mshr_miss_rate::total     0.084597                       # mshr miss rate for ReadReq accesses
system.cpu.dcache.ReadReq_avg_mshr_miss_latency::.switch_cpus.data 53097.428000                       # average ReadReq mshr miss latency
system.cpu.dcache.ReadReq_avg_mshr_miss_latency::total 53097.428000                       # average ReadReq mshr miss latency
system.cpu.dcache.WriteReq_hits::.cpu.data            5                       # number of WriteReq hits
system.cpu.dcache.WriteReq_hits::.switch_cpus.data      1352535                       # number of WriteReq hits
system.cpu.dcache.WriteReq_hits::total        1352540                       # number of WriteReq hits
system.cpu.dcache.WriteReq_misses::.cpu.data            2                       # number of WriteReq misses
system.cpu.dcache.WriteReq_misses::.switch_cpus.data        65700                       # number of WriteReq misses
system.cpu.dcache.WriteReq_misses::total        65702                       # number of WriteReq misses
system.cpu.dcache.WriteReq_miss_latency::.switch_cpus.data   3020694329                       # number of WriteReq miss cycles
system.cpu.dcache.WriteReq_miss_latency::total   3020694329                       # number of WriteReq miss cycles
system.cpu.dcache.WriteReq_accesses::.cpu.data            7                       # number of WriteReq accesses(hits+misses)
system.cpu.dcache.WriteReq_accesses::.switch_cpus.data      1418235                       # number of WriteReq accesses(hits+misses)
system.cpu.dcache.WriteReq_accesses::total      1418242                       # number of WriteReq accesses(hits+misses)
system.cpu.dcache.WriteReq_miss_rate::.cpu.data     0.285714                       # miss rate for WriteReq accesses
system.cpu.dcache.WriteReq_miss_rate::.switch_cpus.data     0.046325                       # miss rate for WriteReq accesses
system.cpu.dcache.WriteReq_miss_rate::total     0.046326                       # miss rate for WriteReq accesses
system.cpu.dcache.WriteReq_avg_miss_latency::.switch_cpus.data 45977.082633                       # average WriteReq miss latency
system.cpu.dcache.WriteReq_avg_miss_latency::total 45975.683069                       # average WriteReq miss latency
system.cpu.dcache.WriteReq_mshr_hits::.switch_cpus.data          409                       # number of WriteReq MSHR hits
system.cpu.dcache.WriteReq_mshr_hits::total          409                       # number of WriteReq MSHR hits
system.cpu.dcache.WriteReq_mshr_misses::.switch_cpus.data        65291                       # number of WriteReq MSHR misses
system.cpu.dcache.WriteReq_mshr_misses::total        65291                       # number of WriteReq MSHR misses
system.cpu.dcache.WriteReq_mshr_miss_latency::.switch_cpus.data   2940648840                       # number of WriteReq MSHR miss cycles
system.cpu.dcache.WriteReq_mshr_miss_latency::total   2940648840                       # number of WriteReq MSHR miss cycles
system.cpu.dcache.WriteReq_mshr_miss_rate::.switch_cpus.data     0.046037                       # mshr miss rate for WriteReq accesses
system.cpu.dcache.WriteReq_mshr_miss_rate::total     0.046037                       # mshr miss rate for WriteReq accesses
system.cpu.dcache.WriteReq_avg_mshr_miss_latency::.switch_cpus.data 45039.114733                       # average WriteReq mshr miss latency
system.cpu.dcache.WriteReq_avg_mshr_miss_latency::total 45039.114733                       # average WriteReq mshr miss latency
system.cpu.dcache.power_state.pwrStateResidencyTicks::UNDEFINED  33116883500                       # Cumulative time (in ticks) in various power states
system.cpu.dcache.tags.tagsinuse            63.995257                       # Cycle average of tags in use
system.cpu.dcache.tags.total_refs             5306185                       # Total number of references to valid blocks.
system.cpu.dcache.tags.sampled_refs            412594                       # Sample count of references to valid blocks.
system.cpu.dcache.tags.avg_refs             12.860548                       # Average number of references to valid blocks.
system.cpu.dcache.tags.warmup_cycle              1500                       # Cycle when the warmup percentage was hit.
system.cpu.dcache.tags.occ_blocks::.cpu.data     0.000410                       # Average occupied blocks per requestor
system.cpu.dcache.tags.occ_blocks::.switch_cpus.data    63.994848                       # Average occupied blocks per requestor
system.cpu.dcache.tags.occ_percent::.cpu.data     0.000006                       # Average percentage of cache occupancy
system.cpu.dcache.tags.occ_percent::.switch_cpus.data     0.999919                       # Average percentage of cache occupancy
system.cpu.dcache.tags.occ_percent::total     0.999926                       # Average percentage of cache occupancy
system.cpu.dcache.tags.occ_task_id_blocks::1024           64                       # Occupied blocks per task id
system.cpu.dcache.tags.age_task_id_blocks_1024::0           49                       # Occupied blocks per task id
system.cpu.dcache.tags.age_task_id_blocks_1024::1           15                       # Occupied blocks per task id
system.cpu.dcache.tags.occ_task_id_percent::1024            1                       # Percentage of cache occupancy per task id
system.cpu.dcache.tags.tag_accesses          11600770                       # Number of tag accesses
system.cpu.dcache.tags.data_accesses         11600770                       # Number of data accesses
system.cpu.dcache.tags.power_state.pwrStateResidencyTicks::UNDEFINED  33116883500                       # Cumulative time (in ticks) in various power states
system.cpu.power_state.numTransitions               1                       # Number of power state transitions
system.cpu.power_state.pwrStateResidencyTicks::ON        10500                       # Cumulative time (in ticks) in various power states
system.cpu.power_state.pwrStateResidencyTicks::OFF  33116873000                       # Cumulative time (in ticks) in various power states

---------- End Simulation Statistics   ----------
