
---------- Begin Simulation Statistics ----------
final_tick                                13780729000                       # Number of ticks from beginning of simulation (restored from checkpoints and never reset)
host_inst_rate                                  95205                       # Simulator instruction rate (inst/s)
host_mem_usage                                 998316                       # Number of bytes of host memory used
host_op_rate                                   163312                       # Simulator op (including micro ops) rate (op/s)
host_seconds                                   105.04                       # Real time elapsed on the host
host_tick_rate                              131199051                       # Simulator tick rate (ticks/s)
sim_freq                                 1000000000000                       # Frequency of simulated ticks
sim_insts                                    10000011                       # Number of instructions simulated
sim_ops                                      17153812                       # Number of ops (including micro ops) simulated
sim_seconds                                  0.013781                       # Number of seconds simulated
sim_ticks                                 13780729000                       # Number of ticks simulated
system.cpu.Branches                                 1                       # Number of branches fetched
system.cpu.committedInsts                          10                       # Number of instructions committed
system.cpu.committedOps                            21                       # Number of ops (including micro ops) committed
system.cpu.dtb.rdAccesses                           0                       # TLB accesses on read requests
system.cpu.dtb.rdMisses                             0                       # TLB misses on read requests
system.cpu.dtb.wrAccesses                           7                       # TLB accesses on write requests
system.cpu.dtb.wrMisses                             1                       # TLB misses on write requests
system.cpu.idle_fraction                            0                       # Percentage of idle cycles
system.cpu.itb.rdAccesses                           0                       # TLB accesses on read requests
system.cpu.itb.rdMisses                             0                       # TLB misses on read requests
system.cpu.itb.wrAccesses                          10                       # TLB accesses on write requests
system.cpu.itb.wrMisses                             0                       # TLB misses on write requests
system.cpu.not_idle_fraction                        1                       # Percentage of non-idle cycles
system.cpu.numCycles                               21                       # number of cpu cycles simulated
system.cpu.numWorkItemsCompleted                    0                       # number of work items this cpu completed
system.cpu.numWorkItemsStarted                      0                       # number of work items this cpu started
system.cpu.num_busy_cycles                         21                       # Number of busy cycles
system.cpu.num_cc_register_writes                   2                       # number of times the CC registers were written
system.cpu.num_conditional_control_insts            0                       # number of instructions that are conditional controls
system.cpu.num_fp_alu_accesses                      0                       # Number of float alu accesses
system.cpu.num_fp_insts                             0                       # number of float instructions
system.cpu.num_fp_register_reads                    0                       # number of times the floating registers were read
system.cpu.num_fp_register_writes                   0                       # number of times the floating registers were written
system.cpu.num_func_calls                           1                       # number of times a function call or return occured
system.cpu.num_idle_cycles                          0                       # Number of idle cycles
system.cpu.num_int_alu_accesses                    21                       # Number of integer alu accesses
system.cpu.num_int_insts                           21                       # number of integer instructions
system.cpu.num_int_register_reads                  47                       # number of times the integer registers were read
system.cpu.num_int_register_writes                 13                       # number of times the integer registers were written
system.cpu.num_load_insts                           0                       # Number of load instructions
system.cpu.num_mem_refs                             7                       # number of memory refs
system.cpu.num_store_insts                          7                       # Number of store instructions
system.cpu.num_vec_alu_accesses                     0                       # Number of vector alu accesses
system.cpu.num_vec_insts                            0                       # number of vector instructions
system.cpu.num_vec_register_reads                   0                       # number of times the vector registers were read
system.cpu.num_vec_register_writes                  0                       # number of times the vector registers were written
system.cpu.op_class::No_OpClass                     0      0.00%      0.00% # Class of executed instruction
system.cpu.op_class::IntAlu                        14     66.67%     66.67% # Class of executed instruction
system.cpu.op_class::IntMult                        0      0.00%     66.67% # Class of executed instruction
system.cpu.op_class::IntDiv                         0      0.00%     66.67% # Class of executed instruction
system.cpu.op_class::FloatAdd                       0      0.00%     66.67% # Class of executed instruction
system.cpu.op_class::FloatCmp                       0      0.00%     66.67% # Class of executed instruction
system.cpu.op_class::FloatCvt                       0      0.00%     66.67% # Class of executed instruction
system.cpu.op_class::FloatMult                      0      0.00%     66.67% # Class of executed instruction
system.cpu.op_class::FloatMultAcc                   0      0.00%     66.67% # Class of executed instruction
system.cpu.op_class::FloatDiv                       0      0.00%     66.67% # Class of executed instruction
system.cpu.op_class::FloatMisc                      0      0.00%     66.67% # Class of executed instruction
system.cpu.op_class::FloatSqrt                      0      0.00%     66.67% # Class of executed instruction
system.cpu.op_class::SimdAdd                        0      0.00%     66.67% # Class of executed instruction
system.cpu.op_class::SimdAddAcc                     0      0.00%     66.67% # Class of executed instruction
system.cpu.op_class::SimdAlu                        0      0.00%     66.67% # Class of executed instruction
system.cpu.op_class::SimdCmp                        0      0.00%     66.67% # Class of executed instruction
system.cpu.op_class::SimdCvt                        0      0.00%     66.67% # Class of executed instruction
system.cpu.op_class::SimdMisc                       0      0.00%     66.67% # Class of executed instruction
system.cpu.op_class::SimdMult                       0      0.00%     66.67% # Class of executed instruction
system.cpu.op_class::SimdMultAcc                    0      0.00%     66.67% # Class of executed instruction
system.cpu.op_class::SimdShift                      0      0.00%     66.67% # Class of executed instruction
system.cpu.op_class::SimdShiftAcc                   0      0.00%     66.67% # Class of executed instruction
system.cpu.op_class::SimdDiv                        0      0.00%     66.67% # Class of executed instruction
system.cpu.op_class::SimdSqrt                       0      0.00%     66.67% # Class of executed instruction
system.cpu.op_class::SimdFloatAdd                   0      0.00%     66.67% # Class of executed instruction
system.cpu.op_class::SimdFloatAlu                   0      0.00%     66.67% # Class of executed instruction
system.cpu.op_class::SimdFloatCmp                   0      0.00%     66.67% # Class of executed instruction
system.cpu.op_class::SimdFloatCvt                   0      0.00%     66.67% # Class of executed instruction
system.cpu.op_class::SimdFloatDiv                   0      0.00%     66.67% # Class of executed instruction
system.cpu.op_class::SimdFloatMisc                  0      0.00%     66.67% # Class of executed instruction
system.cpu.op_class::SimdFloatMult                  0      0.00%     66.67% # Class of executed instruction
system.cpu.op_class::SimdFloatMultAcc               0      0.00%     66.67% # Class of executed instruction
system.cpu.op_class::SimdFloatSqrt                  0      0.00%     66.67% # Class of executed instruction
system.cpu.op_class::SimdReduceAdd                  0      0.00%     66.67% # Class of executed instruction
system.cpu.op_class::SimdReduceAlu                  0      0.00%     66.67% # Class of executed instruction
system.cpu.op_class::SimdReduceCmp                  0      0.00%     66.67% # Class of executed instruction
system.cpu.op_class::SimdFloatReduceAdd             0      0.00%     66.67% # Class of executed instruction
system.cpu.op_class::SimdFloatReduceCmp             0      0.00%     66.67% # Class of executed instruction
system.cpu.op_class::SimdAes                        0      0.00%     66.67% # Class of executed instruction
system.cpu.op_class::SimdAesMix                     0      0.00%     66.67% # Class of executed instruction
system.cpu.op_class::SimdSha1Hash                   0      0.00%     66.67% # Class of executed instruction
system.cpu.op_class::SimdSha1Hash2                  0      0.00%     66.67% # Class of executed instruction
system.cpu.op_class::SimdSha256Hash                 0      0.00%     66.67% # Class of executed instruction
system.cpu.op_class::SimdSha256Hash2                0      0.00%     66.67% # Class of executed instruction
system.cpu.op_class::SimdShaSigma2                  0      0.00%     66.67% # Class of executed instruction
system.cpu.op_class::SimdShaSigma3                  0      0.00%     66.67% # Class of executed instruction
system.cpu.op_class::SimdPredAlu                    0      0.00%     66.67% # Class of executed instruction
system.cpu.op_class::MemRead                        0      0.00%     66.67% # Class of executed instruction
system.cpu.op_class::MemWrite                       7     33.33%    100.00% # Class of executed instruction
system.cpu.op_class::FloatMemRead                   0      0.00%    100.00% # Class of executed instruction
system.cpu.op_class::FloatMemWrite                  0      0.00%    100.00% # Class of executed instruction
system.cpu.op_class::IprAccess                      0      0.00%    100.00% # Class of executed instruction
system.cpu.op_class::InstPrefetch                   0      0.00%    100.00% # Class of executed instruction
system.cpu.op_class::total                         21                       # Class of executed instruction
system.cpu.workload.numSyscalls                   154                       # Number of system calls
system.membus.snoop_filter.hit_multi_requests            0                       # Number of requests hitting in the snoop filter with multiple (>1) holders of the requested data.
system.membus.snoop_filter.hit_multi_snoops            0                       # Number of snoops hitting in the snoop filter with multiple (>1) holders of the requested data.
system.membus.snoop_filter.hit_single_requests       150862                       # Number of requests hitting in the snoop filter with a single holder of the requested data.
system.membus.snoop_filter.hit_single_snoops            0                       # Number of snoops hitting in the snoop filter with a single holder of the requested data.
system.membus.snoop_filter.tot_requests        302016                       # Total number of requests made to the snoop filter.
system.membus.snoop_filter.tot_snoops               0                       # Total number of snoops made to the snoop filter.
system.switch_cpus.branchPred.BTBCorrect            0                       # Number of correct BTB predictions (this stat may not work properly.
system.switch_cpus.branchPred.BTBHitPct           nan                       # BTB Hit Percentage
system.switch_cpus.branchPred.BTBHits               0                       # Number of BTB hits
system.switch_cpus.branchPred.BTBLookups            0                       # Number of BTB lookups
system.switch_cpus.branchPred.RASInCorrect           62                       # Number of incorrect RAS predictions.
system.switch_cpus.branchPred.condIncorrect       113239                       # Number of conditional branches incorrect
system.switch_cpus.branchPred.condPredicted      1932837                       # Number of conditional branches predicted
system.switch_cpus.branchPred.indirectHits      1056949                       # Number of indirect target hits.
system.switch_cpus.branchPred.indirectLookups      1334555                       # Number of indirect predictor lookups.
system.switch_cpus.branchPred.indirectMisses       277606                       # Number of indirect misses.
system.switch_cpus.branchPred.lookups         2227671                       # Number of BP lookups
system.switch_cpus.branchPred.usedRAS          131558                       # Number of times the RAS was used to get a target.
system.switch_cpus.branchPredindirectMispredicted        73045                       # Number of mispredicted indirect branches.
system.switch_cpus.cc_regfile_reads           8894520                       # number of cc regfile reads
system.switch_cpus.cc_regfile_writes          7263026                       # number of cc regfile writes
system.switch_cpus.commit.amos                      0                       # Number of atomic instructions committed
system.switch_cpus.commit.branchMispredicts       113963                       # The number of times a branch was mispredicted
system.switch_cpus.commit.branches            1513822                       # Number of branches committed
system.switch_cpus.commit.bw_lim_events       1230770                       # number cycles where commit BW limit reached
system.switch_cpus.commit.commitNonSpecStalls          412                       # The number of times commit has been forced to stall to communicate backwards
system.switch_cpus.commit.commitSquashedInsts      4499736                       # The number of squashed insts skipped by commit
system.switch_cpus.commit.committedInsts     10000001                       # Number of instructions committed
system.switch_cpus.commit.committedOps       17153791                       # Number of ops (including micro ops) committed
system.switch_cpus.commit.committed_per_cycle::samples     25122858                       # Number of insts commited each cycle
system.switch_cpus.commit.committed_per_cycle::mean     0.682796                       # Number of insts commited each cycle
system.switch_cpus.commit.committed_per_cycle::stdev     1.905402                       # Number of insts commited each cycle
system.switch_cpus.commit.committed_per_cycle::underflows            0      0.00%      0.00% # Number of insts commited each cycle
system.switch_cpus.commit.committed_per_cycle::0     20636739     82.14%     82.14% # Number of insts commited each cycle
system.switch_cpus.commit.committed_per_cycle::1      1498140      5.96%     88.11% # Number of insts commited each cycle
system.switch_cpus.commit.committed_per_cycle::2       542390      2.16%     90.27% # Number of insts commited each cycle
system.switch_cpus.commit.committed_per_cycle::3       734884      2.93%     93.19% # Number of insts commited each cycle
system.switch_cpus.commit.committed_per_cycle::4       170041      0.68%     93.87% # Number of insts commited each cycle
system.switch_cpus.commit.committed_per_cycle::5       123922      0.49%     94.36% # Number of insts commited each cycle
system.switch_cpus.commit.committed_per_cycle::6        81519      0.32%     94.69% # Number of insts commited each cycle
system.switch_cpus.commit.committed_per_cycle::7       104453      0.42%     95.10% # Number of insts commited each cycle
system.switch_cpus.commit.committed_per_cycle::8      1230770      4.90%    100.00% # Number of insts commited each cycle
system.switch_cpus.commit.committed_per_cycle::overflows            0      0.00%    100.00% # Number of insts commited each cycle
system.switch_cpus.commit.committed_per_cycle::min_value            0                       # Number of insts commited each cycle
system.switch_cpus.commit.committed_per_cycle::max_value            8                       # Number of insts commited each cycle
system.switch_cpus.commit.committed_per_cycle::total     25122858                       # Number of insts commited each cycle
system.switch_cpus.commit.fp_insts             617512                       # Number of committed floating point instructions.
system.switch_cpus.commit.function_calls        77091                       # Number of function calls committed.
system.switch_cpus.commit.int_insts          17055072                       # Number of committed integer instructions.
system.switch_cpus.commit.loads               2693142                       # Number of loads committed
system.switch_cpus.commit.membars                  40                       # Number of memory barriers committed
system.switch_cpus.commit.op_class_0::No_OpClass        45637      0.27%      0.27% # Class of committed instruction
system.switch_cpus.commit.op_class_0::IntAlu     12485084     72.78%     73.05% # Class of committed instruction
system.switch_cpus.commit.op_class_0::IntMult       122449      0.71%     73.76% # Class of committed instruction
system.switch_cpus.commit.op_class_0::IntDiv        23184      0.14%     73.90% # Class of committed instruction
system.switch_cpus.commit.op_class_0::FloatAdd         6253      0.04%     73.93% # Class of committed instruction
system.switch_cpus.commit.op_class_0::FloatCmp            0      0.00%     73.93% # Class of committed instruction
system.switch_cpus.commit.op_class_0::FloatCvt          352      0.00%     73.94% # Class of committed instruction
system.switch_cpus.commit.op_class_0::FloatMult            0      0.00%     73.94% # Class of committed instruction
system.switch_cpus.commit.op_class_0::FloatMultAcc            0      0.00%     73.94% # Class of committed instruction
system.switch_cpus.commit.op_class_0::FloatDiv            0      0.00%     73.94% # Class of committed instruction
system.switch_cpus.commit.op_class_0::FloatMisc            0      0.00%     73.94% # Class of committed instruction
system.switch_cpus.commit.op_class_0::FloatSqrt            0      0.00%     73.94% # Class of committed instruction
system.switch_cpus.commit.op_class_0::SimdAdd            0      0.00%     73.94% # Class of committed instruction
system.switch_cpus.commit.op_class_0::SimdAddAcc            0      0.00%     73.94% # Class of committed instruction
system.switch_cpus.commit.op_class_0::SimdAlu           36      0.00%     73.94% # Class of committed instruction
system.switch_cpus.commit.op_class_0::SimdCmp            0      0.00%     73.94% # Class of committed instruction
system.switch_cpus.commit.op_class_0::SimdCvt           44      0.00%     73.94% # Class of committed instruction
system.switch_cpus.commit.op_class_0::SimdMisc        22287      0.13%     74.07% # Class of committed instruction
system.switch_cpus.commit.op_class_0::SimdMult            0      0.00%     74.07% # Class of committed instruction
system.switch_cpus.commit.op_class_0::SimdMultAcc            0      0.00%     74.07% # Class of committed instruction
system.switch_cpus.commit.op_class_0::SimdShift            0      0.00%     74.07% # Class of committed instruction
system.switch_cpus.commit.op_class_0::SimdShiftAcc            0      0.00%     74.07% # Class of committed instruction
system.switch_cpus.commit.op_class_0::SimdDiv            0      0.00%     74.07% # Class of committed instruction
system.switch_cpus.commit.op_class_0::SimdSqrt            0      0.00%     74.07% # Class of committed instruction
system.switch_cpus.commit.op_class_0::SimdFloatAdd        12150      0.07%     74.14% # Class of committed instruction
system.switch_cpus.commit.op_class_0::SimdFloatAlu            0      0.00%     74.14% # Class of committed instruction
system.switch_cpus.commit.op_class_0::SimdFloatCmp            1      0.00%     74.14% # Class of committed instruction
system.switch_cpus.commit.op_class_0::SimdFloatCvt        30280      0.18%     74.31% # Class of committed instruction
system.switch_cpus.commit.op_class_0::SimdFloatDiv         2027      0.01%     74.33% # Class of committed instruction
system.switch_cpus.commit.op_class_0::SimdFloatMisc            0      0.00%     74.33% # Class of committed instruction
system.switch_cpus.commit.op_class_0::SimdFloatMult           29      0.00%     74.33% # Class of committed instruction
system.switch_cpus.commit.op_class_0::SimdFloatMultAcc            0      0.00%     74.33% # Class of committed instruction
system.switch_cpus.commit.op_class_0::SimdFloatSqrt            0      0.00%     74.33% # Class of committed instruction
system.switch_cpus.commit.op_class_0::SimdReduceAdd            0      0.00%     74.33% # Class of committed instruction
system.switch_cpus.commit.op_class_0::SimdReduceAlu            0      0.00%     74.33% # Class of committed instruction
system.switch_cpus.commit.op_class_0::SimdReduceCmp            0      0.00%     74.33% # Class of committed instruction
system.switch_cpus.commit.op_class_0::SimdFloatReduceAdd            0      0.00%     74.33% # Class of committed instruction
system.switch_cpus.commit.op_class_0::SimdFloatReduceCmp            0      0.00%     74.33% # Class of committed instruction
system.switch_cpus.commit.op_class_0::SimdAes            0      0.00%     74.33% # Class of committed instruction
system.switch_cpus.commit.op_class_0::SimdAesMix            0      0.00%     74.33% # Class of committed instruction
system.switch_cpus.commit.op_class_0::SimdSha1Hash            0      0.00%     74.33% # Class of committed instruction
system.switch_cpus.commit.op_class_0::SimdSha1Hash2            0      0.00%     74.33% # Class of committed instruction
system.switch_cpus.commit.op_class_0::SimdSha256Hash            0      0.00%     74.33% # Class of committed instruction
system.switch_cpus.commit.op_class_0::SimdSha256Hash2            0      0.00%     74.33% # Class of committed instruction
system.switch_cpus.commit.op_class_0::SimdShaSigma2            0      0.00%     74.33% # Class of committed instruction
system.switch_cpus.commit.op_class_0::SimdShaSigma3            0      0.00%     74.33% # Class of committed instruction
system.switch_cpus.commit.op_class_0::SimdPredAlu            0      0.00%     74.33% # Class of committed instruction
system.switch_cpus.commit.op_class_0::MemRead      2676228     15.60%     89.93% # Class of committed instruction
system.switch_cpus.commit.op_class_0::MemWrite      1185797      6.91%     96.84% # Class of committed instruction
system.switch_cpus.commit.op_class_0::FloatMemRead        16914      0.10%     96.94% # Class of committed instruction
system.switch_cpus.commit.op_class_0::FloatMemWrite       525039      3.06%    100.00% # Class of committed instruction
system.switch_cpus.commit.op_class_0::IprAccess            0      0.00%    100.00% # Class of committed instruction
system.switch_cpus.commit.op_class_0::InstPrefetch            0      0.00%    100.00% # Class of committed instruction
system.switch_cpus.commit.op_class_0::total     17153791                       # Class of committed instruction
system.switch_cpus.commit.refs                4403978                       # Number of memory references committed
system.switch_cpus.commit.swp_count                 0                       # Number of s/w prefetches committed
system.switch_cpus.commit.vec_insts                 0                       # Number of committed Vector instructions.
system.switch_cpus.committedInsts            10000001                       # Number of Instructions Simulated
system.switch_cpus.committedOps              17153791                       # Number of Ops (including micro ops) Simulated
system.switch_cpus.cpi                       2.756143                       # CPI: Cycles Per Instruction
system.switch_cpus.cpi_total                 2.756143                       # CPI: Total CPI of All Threads
system.switch_cpus.decode.BlockedCycles      17467285                       # Number of cycles decode is blocked
system.switch_cpus.decode.DecodedInsts       22896855                       # Number of instructions handled by decode
system.switch_cpus.decode.IdleCycles          4833808                       # Number of cycles decode is idle
system.switch_cpus.decode.RunCycles           2953734                       # Number of cycles decode is running
system.switch_cpus.decode.SquashCycles         116635                       # Number of cycles decode is squashing
system.switch_cpus.decode.UnblockCycles        434781                       # Number of cycles decode is unblocking
system.switch_cpus.dtb.rdAccesses             3177540                       # TLB accesses on read requests
system.switch_cpus.dtb.rdMisses                  5901                       # TLB misses on read requests
system.switch_cpus.dtb.wrAccesses             1908882                       # TLB accesses on write requests
system.switch_cpus.dtb.wrMisses                 37470                       # TLB misses on write requests
system.switch_cpus.fetch.Branches             2227671                       # Number of branches that fetch encountered
system.switch_cpus.fetch.CacheLines           1275057                       # Number of cache lines fetched
system.switch_cpus.fetch.Cycles              20248091                       # Number of cycles fetch has run and was not squashing or blocked
system.switch_cpus.fetch.IcacheSquashes         48066                       # Number of outstanding Icache misses that were squashed
system.switch_cpus.fetch.IcacheWaitRetryStallCycles          487                       # Number of stall cycles due to full MSHR
system.switch_cpus.fetch.Insts               13530057                       # Number of instructions fetch has processed
system.switch_cpus.fetch.MiscStallCycles          909                       # Number of cycles fetch has spent waiting on interrupts, or bad addresses, or out of MSHRs
system.switch_cpus.fetch.PendingQuiesceStallCycles            7                       # Number of stall cycles due to pending quiesce instructions
system.switch_cpus.fetch.PendingTrapStallCycles         4957                       # Number of stall cycles due to pending traps
system.switch_cpus.fetch.SquashCycles          233270                       # Number of cycles fetch has spent squashing
system.switch_cpus.fetch.branchRate          0.080826                       # Number of branch fetches per cycle
system.switch_cpus.fetch.icacheStallCycles      5435159                       # Number of cycles fetch is stalled on an Icache miss
system.switch_cpus.fetch.predictedBranches      1188507                       # Number of branches that fetch has predicted taken
system.switch_cpus.fetch.rate                0.490905                       # Number of inst fetches per cycle
system.switch_cpus.fetch.rateDist::samples     25806245                       # Number of instructions fetched each cycle (Total)
system.switch_cpus.fetch.rateDist::mean      0.927391                       # Number of instructions fetched each cycle (Total)
system.switch_cpus.fetch.rateDist::stdev     2.405484                       # Number of instructions fetched each cycle (Total)
system.switch_cpus.fetch.rateDist::underflows            0      0.00%      0.00% # Number of instructions fetched each cycle (Total)
system.switch_cpus.fetch.rateDist::0         21892268     84.83%     84.83% # Number of instructions fetched each cycle (Total)
system.switch_cpus.fetch.rateDist::1           379274      1.47%     86.30% # Number of instructions fetched each cycle (Total)
system.switch_cpus.fetch.rateDist::2           203631      0.79%     87.09% # Number of instructions fetched each cycle (Total)
system.switch_cpus.fetch.rateDist::3           208366      0.81%     87.90% # Number of instructions fetched each cycle (Total)
system.switch_cpus.fetch.rateDist::4           329780      1.28%     89.18% # Number of instructions fetched each cycle (Total)
system.switch_cpus.fetch.rateDist::5           190208      0.74%     89.91% # Number of instructions fetched each cycle (Total)
system.switch_cpus.fetch.rateDist::6           205015      0.79%     90.71% # Number of instructions fetched each cycle (Total)
system.switch_cpus.fetch.rateDist::7           161037      0.62%     91.33% # Number of instructions fetched each cycle (Total)
system.switch_cpus.fetch.rateDist::8          2236666      8.67%    100.00% # Number of instructions fetched each cycle (Total)
system.switch_cpus.fetch.rateDist::overflows            0      0.00%    100.00% # Number of instructions fetched each cycle (Total)
system.switch_cpus.fetch.rateDist::min_value            0                       # Number of instructions fetched each cycle (Total)
system.switch_cpus.fetch.rateDist::max_value            8                       # Number of instructions fetched each cycle (Total)
system.switch_cpus.fetch.rateDist::total     25806245                       # Number of instructions fetched each cycle (Total)
system.switch_cpus.fp_regfile_reads            701369                       # number of floating regfile reads
system.switch_cpus.fp_regfile_writes            95192                       # number of floating regfile writes
system.switch_cpus.idleCycles                 1755192                       # Total number of cycles that the CPU has spent unscheduled due to idling
system.switch_cpus.iew.branchMispredicts       142844                       # Number of branch mispredicts detected at execute
system.switch_cpus.iew.exec_branches          1730626                       # Number of branches executed
system.switch_cpus.iew.exec_nop                     0                       # number of nop insts executed
system.switch_cpus.iew.exec_rate             0.731740                       # Inst execution rate
system.switch_cpus.iew.exec_refs              5110933                       # number of memory reference insts executed
system.switch_cpus.iew.exec_stores            1908870                       # Number of stores executed
system.switch_cpus.iew.exec_swp                     0                       # number of swp insts executed
system.switch_cpus.iew.iewBlockCycles         1377396                       # Number of cycles IEW is blocking
system.switch_cpus.iew.iewDispLoadInsts       3397685                       # Number of dispatched load instructions
system.switch_cpus.iew.iewDispNonSpecInsts         5592                       # Number of dispatched non-speculative instructions
system.switch_cpus.iew.iewDispSquashedInsts         6557                       # Number of squashed instructions skipped by dispatch
system.switch_cpus.iew.iewDispStoreInsts      2025059                       # Number of dispatched store instructions
system.switch_cpus.iew.iewDispatchedInsts     21681622                       # Number of instructions dispatched to IQ
system.switch_cpus.iew.iewExecLoadInsts       3202063                       # Number of load instructions executed
system.switch_cpus.iew.iewExecSquashedInsts       209301                       # Number of squashed instructions skipped in execute
system.switch_cpus.iew.iewExecutedInsts      20167817                       # Number of executed instructions
system.switch_cpus.iew.iewIQFullEvents          14366                       # Number of times the IQ has become full, causing a stall
system.switch_cpus.iew.iewIdleCycles                0                       # Number of cycles IEW is idle
system.switch_cpus.iew.iewLSQFullEvents       5892172                       # Number of times the LSQ has become full, causing a stall
system.switch_cpus.iew.iewSquashCycles         116635                       # Number of cycles IEW is squashing
system.switch_cpus.iew.iewUnblockCycles       5915245                       # Number of cycles IEW is unblocking
system.switch_cpus.iew.lsq.thread0.blockedLoads            0                       # Number of blocked loads due to partial load-store forwarding
system.switch_cpus.iew.lsq.thread0.cacheBlocked         8077                       # Number of times an access to memory failed due to the cache being blocked
system.switch_cpus.iew.lsq.thread0.forwLoads       249558                       # Number of loads that had data forwarded from stores
system.switch_cpus.iew.lsq.thread0.ignoredResponses          844                       # Number of memory responses ignored because the instruction is squashed
system.switch_cpus.iew.lsq.thread0.invAddrLoads            0                       # Number of loads ignored due to an invalid address
system.switch_cpus.iew.lsq.thread0.invAddrSwpfs            0                       # Number of software prefetches ignored due to an invalid address
system.switch_cpus.iew.lsq.thread0.memOrderViolation          432                       # Number of memory ordering violations
system.switch_cpus.iew.lsq.thread0.rescheduledLoads          481                       # Number of loads that were rescheduled
system.switch_cpus.iew.lsq.thread0.squashedLoads       704539                       # Number of loads squashed
system.switch_cpus.iew.lsq.thread0.squashedStores       314215                       # Number of stores squashed
system.switch_cpus.iew.memOrderViolationEvents          432                       # Number of memory order violations
system.switch_cpus.iew.predictedNotTakenIncorrect       126321                       # Number of branches that were predicted not taken incorrectly
system.switch_cpus.iew.predictedTakenIncorrect        16523                       # Number of branches that were predicted taken incorrectly
system.switch_cpus.iew.wb_consumers          23883202                       # num instructions consuming a value
system.switch_cpus.iew.wb_count              19997018                       # cumulative count of insts written-back
system.switch_cpus.iew.wb_fanout             0.623161                       # average fanout of values written-back
system.switch_cpus.iew.wb_producers          14883087                       # num instructions producing a value
system.switch_cpus.iew.wb_rate               0.725543                       # insts written-back per cycle
system.switch_cpus.iew.wb_sent               20070733                       # cumulative count of insts sent to commit
system.switch_cpus.int_regfile_reads         32385208                       # number of integer regfile reads
system.switch_cpus.int_regfile_writes        16483900                       # number of integer regfile writes
system.switch_cpus.ipc                       0.362826                       # IPC: Instructions Per Cycle
system.switch_cpus.ipc_total                 0.362826                       # IPC: Total IPC of All Threads
system.switch_cpus.iq.FU_type_0::No_OpClass        74568      0.37%      0.37% # Type of FU issued
system.switch_cpus.iq.FU_type_0::IntAlu      14846969     72.86%     73.23% # Type of FU issued
system.switch_cpus.iq.FU_type_0::IntMult       161992      0.79%     74.02% # Type of FU issued
system.switch_cpus.iq.FU_type_0::IntDiv         24865      0.12%     74.14% # Type of FU issued
system.switch_cpus.iq.FU_type_0::FloatAdd         9036      0.04%     74.19% # Type of FU issued
system.switch_cpus.iq.FU_type_0::FloatCmp            0      0.00%     74.19% # Type of FU issued
system.switch_cpus.iq.FU_type_0::FloatCvt          548      0.00%     74.19% # Type of FU issued
system.switch_cpus.iq.FU_type_0::FloatMult            0      0.00%     74.19% # Type of FU issued
system.switch_cpus.iq.FU_type_0::FloatMultAcc            0      0.00%     74.19% # Type of FU issued
system.switch_cpus.iq.FU_type_0::FloatDiv            0      0.00%     74.19% # Type of FU issued
system.switch_cpus.iq.FU_type_0::FloatMisc            0      0.00%     74.19% # Type of FU issued
system.switch_cpus.iq.FU_type_0::FloatSqrt            0      0.00%     74.19% # Type of FU issued
system.switch_cpus.iq.FU_type_0::SimdAdd            0      0.00%     74.19% # Type of FU issued
system.switch_cpus.iq.FU_type_0::SimdAddAcc            0      0.00%     74.19% # Type of FU issued
system.switch_cpus.iq.FU_type_0::SimdAlu           70      0.00%     74.19% # Type of FU issued
system.switch_cpus.iq.FU_type_0::SimdCmp            0      0.00%     74.19% # Type of FU issued
system.switch_cpus.iq.FU_type_0::SimdCvt           51      0.00%     74.19% # Type of FU issued
system.switch_cpus.iq.FU_type_0::SimdMisc        23531      0.12%     74.31% # Type of FU issued
system.switch_cpus.iq.FU_type_0::SimdMult            0      0.00%     74.31% # Type of FU issued
system.switch_cpus.iq.FU_type_0::SimdMultAcc            0      0.00%     74.31% # Type of FU issued
system.switch_cpus.iq.FU_type_0::SimdShift            0      0.00%     74.31% # Type of FU issued
system.switch_cpus.iq.FU_type_0::SimdShiftAcc            0      0.00%     74.31% # Type of FU issued
system.switch_cpus.iq.FU_type_0::SimdDiv            0      0.00%     74.31% # Type of FU issued
system.switch_cpus.iq.FU_type_0::SimdSqrt            0      0.00%     74.31% # Type of FU issued
system.switch_cpus.iq.FU_type_0::SimdFloatAdd        12907      0.06%     74.37% # Type of FU issued
system.switch_cpus.iq.FU_type_0::SimdFloatAlu            0      0.00%     74.37% # Type of FU issued
system.switch_cpus.iq.FU_type_0::SimdFloatCmp            1      0.00%     74.37% # Type of FU issued
system.switch_cpus.iq.FU_type_0::SimdFloatCvt        33458      0.16%     74.53% # Type of FU issued
system.switch_cpus.iq.FU_type_0::SimdFloatDiv         2462      0.01%     74.55% # Type of FU issued
system.switch_cpus.iq.FU_type_0::SimdFloatMisc            0      0.00%     74.55% # Type of FU issued
system.switch_cpus.iq.FU_type_0::SimdFloatMult           37      0.00%     74.55% # Type of FU issued
system.switch_cpus.iq.FU_type_0::SimdFloatMultAcc            0      0.00%     74.55% # Type of FU issued
system.switch_cpus.iq.FU_type_0::SimdFloatSqrt            0      0.00%     74.55% # Type of FU issued
system.switch_cpus.iq.FU_type_0::SimdReduceAdd            0      0.00%     74.55% # Type of FU issued
system.switch_cpus.iq.FU_type_0::SimdReduceAlu            0      0.00%     74.55% # Type of FU issued
system.switch_cpus.iq.FU_type_0::SimdReduceCmp            0      0.00%     74.55% # Type of FU issued
system.switch_cpus.iq.FU_type_0::SimdFloatReduceAdd            0      0.00%     74.55% # Type of FU issued
system.switch_cpus.iq.FU_type_0::SimdFloatReduceCmp            0      0.00%     74.55% # Type of FU issued
system.switch_cpus.iq.FU_type_0::SimdAes            0      0.00%     74.55% # Type of FU issued
system.switch_cpus.iq.FU_type_0::SimdAesMix            0      0.00%     74.55% # Type of FU issued
system.switch_cpus.iq.FU_type_0::SimdSha1Hash            0      0.00%     74.55% # Type of FU issued
system.switch_cpus.iq.FU_type_0::SimdSha1Hash2            0      0.00%     74.55% # Type of FU issued
system.switch_cpus.iq.FU_type_0::SimdSha256Hash            0      0.00%     74.55% # Type of FU issued
system.switch_cpus.iq.FU_type_0::SimdSha256Hash2            0      0.00%     74.55% # Type of FU issued
system.switch_cpus.iq.FU_type_0::SimdShaSigma2            0      0.00%     74.55% # Type of FU issued
system.switch_cpus.iq.FU_type_0::SimdShaSigma3            0      0.00%     74.55% # Type of FU issued
system.switch_cpus.iq.FU_type_0::SimdPredAlu            0      0.00%     74.55% # Type of FU issued
system.switch_cpus.iq.FU_type_0::MemRead      3229001     15.85%     90.39% # Type of FU issued
system.switch_cpus.iq.FU_type_0::MemWrite      1372908      6.74%     97.13% # Type of FU issued
system.switch_cpus.iq.FU_type_0::FloatMemRead        25881      0.13%     97.26% # Type of FU issued
system.switch_cpus.iq.FU_type_0::FloatMemWrite       558834      2.74%    100.00% # Type of FU issued
system.switch_cpus.iq.FU_type_0::IprAccess            0      0.00%    100.00% # Type of FU issued
system.switch_cpus.iq.FU_type_0::InstPrefetch            0      0.00%    100.00% # Type of FU issued
system.switch_cpus.iq.FU_type_0::total       20377119                       # Type of FU issued
system.switch_cpus.iq.fp_alu_accesses          671574                       # Number of floating point alu accesses
system.switch_cpus.iq.fp_inst_queue_reads      1340926                       # Number of floating instruction queue reads
system.switch_cpus.iq.fp_inst_queue_wakeup_accesses       635502                       # Number of floating instruction queue wakeup accesses
system.switch_cpus.iq.fp_inst_queue_writes       788518                       # Number of floating instruction queue writes
system.switch_cpus.iq.fu_busy_cnt              315153                       # FU busy when requested
system.switch_cpus.iq.fu_busy_rate           0.015466                       # FU busy rate (busy events/executed inst)
system.switch_cpus.iq.fu_full::No_OpClass            0      0.00%      0.00% # attempts to use FU when none available
system.switch_cpus.iq.fu_full::IntAlu          256665     81.44%     81.44% # attempts to use FU when none available
system.switch_cpus.iq.fu_full::IntMult              0      0.00%     81.44% # attempts to use FU when none available
system.switch_cpus.iq.fu_full::IntDiv               0      0.00%     81.44% # attempts to use FU when none available
system.switch_cpus.iq.fu_full::FloatAdd             0      0.00%     81.44% # attempts to use FU when none available
system.switch_cpus.iq.fu_full::FloatCmp             0      0.00%     81.44% # attempts to use FU when none available
system.switch_cpus.iq.fu_full::FloatCvt             0      0.00%     81.44% # attempts to use FU when none available
system.switch_cpus.iq.fu_full::FloatMult            0      0.00%     81.44% # attempts to use FU when none available
system.switch_cpus.iq.fu_full::FloatMultAcc            0      0.00%     81.44% # attempts to use FU when none available
system.switch_cpus.iq.fu_full::FloatDiv             0      0.00%     81.44% # attempts to use FU when none available
system.switch_cpus.iq.fu_full::FloatMisc            0      0.00%     81.44% # attempts to use FU when none available
system.switch_cpus.iq.fu_full::FloatSqrt            0      0.00%     81.44% # attempts to use FU when none available
system.switch_cpus.iq.fu_full::SimdAdd              0      0.00%     81.44% # attempts to use FU when none available
system.switch_cpus.iq.fu_full::SimdAddAcc            0      0.00%     81.44% # attempts to use FU when none available
system.switch_cpus.iq.fu_full::SimdAlu              1      0.00%     81.44% # attempts to use FU when none available
system.switch_cpus.iq.fu_full::SimdCmp              0      0.00%     81.44% # attempts to use FU when none available
system.switch_cpus.iq.fu_full::SimdCvt              0      0.00%     81.44% # attempts to use FU when none available
system.switch_cpus.iq.fu_full::SimdMisc             0      0.00%     81.44% # attempts to use FU when none available
system.switch_cpus.iq.fu_full::SimdMult             0      0.00%     81.44% # attempts to use FU when none available
system.switch_cpus.iq.fu_full::SimdMultAcc            0      0.00%     81.44% # attempts to use FU when none available
system.switch_cpus.iq.fu_full::SimdShift            0      0.00%     81.44% # attempts to use FU when none available
system.switch_cpus.iq.fu_full::SimdShiftAcc            0      0.00%     81.44% # attempts to use FU when none available
system.switch_cpus.iq.fu_full::SimdDiv              0      0.00%     81.44% # attempts to use FU when none available
system.switch_cpus.iq.fu_full::SimdSqrt             0      0.00%     81.44% # attempts to use FU when none available
system.switch_cpus.iq.fu_full::SimdFloatAdd            0      0.00%     81.44% # attempts to use FU when none available
system.switch_cpus.iq.fu_full::SimdFloatAlu            0      0.00%     81.44% # attempts to use FU when none available
system.switch_cpus.iq.fu_full::SimdFloatCmp            0      0.00%     81.44% # attempts to use FU when none available
system.switch_cpus.iq.fu_full::SimdFloatCvt            0      0.00%     81.44% # attempts to use FU when none available
system.switch_cpus.iq.fu_full::SimdFloatDiv            0      0.00%     81.44% # attempts to use FU when none available
system.switch_cpus.iq.fu_full::SimdFloatMisc            0      0.00%     81.44% # attempts to use FU when none available
system.switch_cpus.iq.fu_full::SimdFloatMult            0      0.00%     81.44% # attempts to use FU when none available
system.switch_cpus.iq.fu_full::SimdFloatMultAcc            0      0.00%     81.44% # attempts to use FU when none available
system.switch_cpus.iq.fu_full::SimdFloatSqrt            0      0.00%     81.44% # attempts to use FU when none available
system.switch_cpus.iq.fu_full::SimdReduceAdd            0      0.00%     81.44% # attempts to use FU when none available
system.switch_cpus.iq.fu_full::SimdReduceAlu            0      0.00%     81.44% # attempts to use FU when none available
system.switch_cpus.iq.fu_full::SimdReduceCmp            0      0.00%     81.44% # attempts to use FU when none available
system.switch_cpus.iq.fu_full::SimdFloatReduceAdd            0      0.00%     81.44% # attempts to use FU when none available
system.switch_cpus.iq.fu_full::SimdFloatReduceCmp            0      0.00%     81.44% # attempts to use FU when none available
system.switch_cpus.iq.fu_full::SimdAes              0      0.00%     81.44% # attempts to use FU when none available
system.switch_cpus.iq.fu_full::SimdAesMix            0      0.00%     81.44% # attempts to use FU when none available
system.switch_cpus.iq.fu_full::SimdSha1Hash            0      0.00%     81.44% # attempts to use FU when none available
system.switch_cpus.iq.fu_full::SimdSha1Hash2            0      0.00%     81.44% # attempts to use FU when none available
system.switch_cpus.iq.fu_full::SimdSha256Hash            0      0.00%     81.44% # attempts to use FU when none available
system.switch_cpus.iq.fu_full::SimdSha256Hash2            0      0.00%     81.44% # attempts to use FU when none available
system.switch_cpus.iq.fu_full::SimdShaSigma2            0      0.00%     81.44% # attempts to use FU when none available
system.switch_cpus.iq.fu_full::SimdShaSigma3            0      0.00%     81.44% # attempts to use FU when none available
system.switch_cpus.iq.fu_full::SimdPredAlu            0      0.00%     81.44% # attempts to use FU when none available
system.switch_cpus.iq.fu_full::MemRead          36599     11.61%     93.05% # attempts to use FU when none available
system.switch_cpus.iq.fu_full::MemWrite         19661      6.24%     99.29% # attempts to use FU when none available
system.switch_cpus.iq.fu_full::FloatMemRead          127      0.04%     99.33% # attempts to use FU when none available
system.switch_cpus.iq.fu_full::FloatMemWrite         2100      0.67%    100.00% # attempts to use FU when none available
system.switch_cpus.iq.fu_full::IprAccess            0      0.00%    100.00% # attempts to use FU when none available
system.switch_cpus.iq.fu_full::InstPrefetch            0      0.00%    100.00% # attempts to use FU when none available
system.switch_cpus.iq.int_alu_accesses       19946130                       # Number of integer alu accesses
system.switch_cpus.iq.int_inst_queue_reads     65585726                       # Number of integer instruction queue reads
system.switch_cpus.iq.int_inst_queue_wakeup_accesses     19361516                       # Number of integer instruction queue wakeup accesses
system.switch_cpus.iq.int_inst_queue_writes     25421285                       # Number of integer instruction queue writes
system.switch_cpus.iq.iqInstsAdded           21666246                       # Number of instructions added to the IQ (excludes non-spec)
system.switch_cpus.iq.iqInstsIssued          20377119                       # Number of instructions issued
system.switch_cpus.iq.iqNonSpecInstsAdded        15376                       # Number of non-speculative instructions added to the IQ
system.switch_cpus.iq.iqSquashedInstsExamined      4527807                       # Number of squashed instructions iterated over during squash; mainly for profiling
system.switch_cpus.iq.iqSquashedInstsIssued        51017                       # Number of squashed instructions issued
system.switch_cpus.iq.iqSquashedNonSpecRemoved        14964                       # Number of squashed non-spec instructions that were removed
system.switch_cpus.iq.iqSquashedOperandsExamined      5270044                       # Number of squashed operands that are examined and possibly removed from graph
system.switch_cpus.iq.issued_per_cycle::samples     25806245                       # Number of insts issued each cycle
system.switch_cpus.iq.issued_per_cycle::mean     0.789620                       # Number of insts issued each cycle
system.switch_cpus.iq.issued_per_cycle::stdev     1.791966                       # Number of insts issued each cycle
system.switch_cpus.iq.issued_per_cycle::underflows            0      0.00%      0.00% # Number of insts issued each cycle
system.switch_cpus.iq.issued_per_cycle::0     19904737     77.13%     77.13% # Number of insts issued each cycle
system.switch_cpus.iq.issued_per_cycle::1      1588187      6.15%     83.29% # Number of insts issued each cycle
system.switch_cpus.iq.issued_per_cycle::2       934752      3.62%     86.91% # Number of insts issued each cycle
system.switch_cpus.iq.issued_per_cycle::3       800357      3.10%     90.01% # Number of insts issued each cycle
system.switch_cpus.iq.issued_per_cycle::4       684015      2.65%     92.66% # Number of insts issued each cycle
system.switch_cpus.iq.issued_per_cycle::5       585951      2.27%     94.93% # Number of insts issued each cycle
system.switch_cpus.iq.issued_per_cycle::6       653967      2.53%     97.46% # Number of insts issued each cycle
system.switch_cpus.iq.issued_per_cycle::7       305492      1.18%     98.65% # Number of insts issued each cycle
system.switch_cpus.iq.issued_per_cycle::8       348787      1.35%    100.00% # Number of insts issued each cycle
system.switch_cpus.iq.issued_per_cycle::overflows            0      0.00%    100.00% # Number of insts issued each cycle
system.switch_cpus.iq.issued_per_cycle::min_value            0                       # Number of insts issued each cycle
system.switch_cpus.iq.issued_per_cycle::max_value            8                       # Number of insts issued each cycle
system.switch_cpus.iq.issued_per_cycle::total     25806245                       # Number of insts issued each cycle
system.switch_cpus.iq.rate                   0.739334                       # Inst issue rate
system.switch_cpus.iq.vec_alu_accesses              0                       # Number of vector alu accesses
system.switch_cpus.iq.vec_inst_queue_reads            0                       # Number of vector instruction queue reads
system.switch_cpus.iq.vec_inst_queue_wakeup_accesses            0                       # Number of vector instruction queue wakeup accesses
system.switch_cpus.iq.vec_inst_queue_writes            0                       # Number of vector instruction queue writes
system.switch_cpus.itb.rdAccesses                   0                       # TLB accesses on read requests
system.switch_cpus.itb.rdMisses                     0                       # TLB misses on read requests
system.switch_cpus.itb.wrAccesses             1275851                       # TLB accesses on write requests
system.switch_cpus.itb.wrMisses                  1042                       # TLB misses on write requests
system.switch_cpus.memDep0.conflictingLoads        66290                       # Number of conflicting loads.
system.switch_cpus.memDep0.conflictingStores        71681                       # Number of conflicting stores.
system.switch_cpus.memDep0.insertedLoads      3397685                       # Number of loads inserted to the mem dependence unit.
system.switch_cpus.memDep0.insertedStores      2025059                       # Number of stores inserted to the mem dependence unit.
system.switch_cpus.misc_regfile_reads         8773807                       # number of misc regfile reads
system.switch_cpus.misc_regfile_writes            199                       # number of misc regfile writes
system.switch_cpus.numCycles                 27561437                       # number of cpu cycles simulated
system.switch_cpus.numWorkItemsCompleted            0                       # number of work items this cpu completed
system.switch_cpus.numWorkItemsStarted              0                       # number of work items this cpu started
system.switch_cpus.rename.BlockCycles         8710632                       # Number of cycles rename is blocking
system.switch_cpus.rename.CommittedMaps      20573890                       # Number of HB maps that are committed
system.switch_cpus.rename.IQFullEvents         247856                       # Number of times rename has blocked due to IQ full
system.switch_cpus.rename.IdleCycles          5025127                       # Number of cycles rename is idle
system.switch_cpus.rename.LQFullEvents         277798                       # Number of times rename has blocked due to LQ full
system.switch_cpus.rename.ROBFullEvents         95146                       # Number of times rename has blocked due to ROB full
system.switch_cpus.rename.RenameLookups      57416443                       # Number of register rename lookups that rename has made
system.switch_cpus.rename.RenamedInsts       22439532                       # Number of instructions processed by rename
system.switch_cpus.rename.RenamedOperands     26679289                       # Number of destination operands rename has renamed
system.switch_cpus.rename.RunCycles           3168267                       # Number of cycles rename is running
system.switch_cpus.rename.SQFullEvents        8154086                       # Number of times rename has blocked due to SQ full
system.switch_cpus.rename.SquashCycles         116635                       # Number of cycles rename is squashing
system.switch_cpus.rename.UnblockCycles       8768613                       # Number of cycles rename is unblocking
system.switch_cpus.rename.UndoneMaps          6105376                       # Number of HB maps that are undone due to squashing
system.switch_cpus.rename.fp_rename_lookups       771008                       # Number of floating rename lookups
system.switch_cpus.rename.int_rename_lookups     36468202                       # Number of integer rename lookups
system.switch_cpus.rename.serializeStallCycles        16970                       # count of cycles rename stalled for serializing inst
system.switch_cpus.rename.serializingInsts          564                       # count of serializing insts renamed
system.switch_cpus.rename.skidInsts           2069653                       # count of insts added to the skid buffer
system.switch_cpus.rename.tempSerializingInsts          522                       # count of temporary serializing insts renamed
system.switch_cpus.rob.rob_reads             45515065                       # The number of ROB reads
system.switch_cpus.rob.rob_writes            43997895                       # The number of ROB writes
system.switch_cpus.timesIdled                   66654                       # Number of times that the entire CPU went into an idle state and unscheduled itself
system.tol2bus.snoop_filter.hit_multi_requests          134                       # Number of requests hitting in the snoop filter with multiple (>1) holders of the requested data.
system.tol2bus.snoop_filter.hit_multi_snoops           18                       # Number of snoops hitting in the snoop filter with multiple (>1) holders of the requested data.
system.tol2bus.snoop_filter.hit_single_requests       411682                       # Number of requests hitting in the snoop filter with a single holder of the requested data.
system.tol2bus.snoop_filter.hit_single_snoops        18329                       # Number of snoops hitting in the snoop filter with a single holder of the requested data.
system.tol2bus.snoop_filter.tot_requests       823496                       # Total number of requests made to the snoop filter.
system.tol2bus.snoop_filter.tot_snoops          18347                       # Total number of snoops made to the snoop filter.
system.membus.trans_dist::ReadResp              55755                       # Transaction distribution
system.membus.trans_dist::WritebackDirty       105355                       # Transaction distribution
system.membus.trans_dist::CleanEvict            45507                       # Transaction distribution
system.membus.trans_dist::ReadExReq             95399                       # Transaction distribution
system.membus.trans_dist::ReadExResp            95398                       # Transaction distribution
system.membus.trans_dist::ReadSharedReq         55755                       # Transaction distribution
system.membus.pkt_count_system.l2.mem_side::system.mem_ctrls.port       453169                       # Packet count per connected master and slave (bytes)
system.membus.pkt_count_system.l2.mem_side::total       453169                       # Packet count per connected master and slave (bytes)
system.membus.pkt_count::total                 453169                       # Packet count per connected master and slave (bytes)
system.membus.pkt_size_system.l2.mem_side::system.mem_ctrls.port     16416512                       # Cumulative packet size per connected master and slave (bytes)
system.membus.pkt_size_system.l2.mem_side::total     16416512                       # Cumulative packet size per connected master and slave (bytes)
system.membus.pkt_size::total                16416512                       # Cumulative packet size per connected master and slave (bytes)
system.membus.snoops                                0                       # Total snoops (count)
system.membus.snoopTraffic                          0                       # Total snoop traffic (bytes)
system.membus.snoop_fanout::samples            151154                       # Request fanout histogram
system.membus.snoop_fanout::mean                    0                       # Request fanout histogram
system.membus.snoop_fanout::stdev                   0                       # Request fanout histogram
system.membus.snoop_fanout::underflows              0      0.00%      0.00% # Request fanout histogram
system.membus.snoop_fanout::0                  151154    100.00%    100.00% # Request fanout histogram
system.membus.snoop_fanout::1                       0      0.00%    100.00% # Request fanout histogram
system.membus.snoop_fanout::overflows               0      0.00%    100.00% # Request fanout histogram
system.membus.snoop_fanout::min_value               0                       # Request fanout histogram
system.membus.snoop_fanout::max_value               0                       # Request fanout histogram
system.membus.snoop_fanout::total              151154                       # Request fanout histogram
system.membus.reqLayer2.occupancy           746955500                       # Layer occupancy (ticks)
system.membus.reqLayer2.utilization               5.4                       # Layer utilization (%)
system.membus.respLayer1.occupancy          804027750                       # Layer occupancy (ticks)
system.membus.respLayer1.utilization              5.8                       # Layer utilization (%)
system.membus.power_state.pwrStateResidencyTicks::UNDEFINED  13780729000                       # Cumulative time (in ticks) in various power states
system.switch_cpus.dtb.walker.power_state.pwrStateResidencyTicks::UNDEFINED  13780729000                       # Cumulative time (in ticks) in various power states
system.switch_cpus.itb.walker.power_state.pwrStateResidencyTicks::UNDEFINED  13780729000                       # Cumulative time (in ticks) in various power states
system.switch_cpus.power_state.pwrStateResidencyTicks::OFF  13780729000                       # Cumulative time (in ticks) in various power states
system.tol2bus.trans_dist::ReadResp            296473                       # Transaction distribution
system.tol2bus.trans_dist::WritebackDirty       256555                       # Transaction distribution
system.tol2bus.trans_dist::WritebackClean       182302                       # Transaction distribution
system.tol2bus.trans_dist::CleanEvict          138576                       # Transaction distribution
system.tol2bus.trans_dist::UpgradeReq               1                       # Transaction distribution
system.tol2bus.trans_dist::UpgradeResp              1                       # Transaction distribution
system.tol2bus.trans_dist::ReadExReq           115339                       # Transaction distribution
system.tol2bus.trans_dist::ReadExResp          115338                       # Transaction distribution
system.tol2bus.trans_dist::ReadCleanReq        182368                       # Transaction distribution
system.tol2bus.trans_dist::ReadSharedReq       114106                       # Transaction distribution
system.tol2bus.pkt_count_system.cpu.icache.mem_side::system.l2.cpu_side       547036                       # Packet count per connected master and slave (bytes)
system.tol2bus.pkt_count_system.cpu.dcache.mem_side::system.l2.cpu_side       688271                       # Packet count per connected master and slave (bytes)
system.tol2bus.pkt_count::total               1235307                       # Packet count per connected master and slave (bytes)
system.tol2bus.pkt_size_system.cpu.icache.mem_side::system.l2.cpu_side     23338752                       # Cumulative packet size per connected master and slave (bytes)
system.tol2bus.pkt_size_system.cpu.dcache.mem_side::system.l2.cpu_side     24361216                       # Cumulative packet size per connected master and slave (bytes)
system.tol2bus.pkt_size::total               47699968                       # Cumulative packet size per connected master and slave (bytes)
system.tol2bus.snoops                          165752                       # Total snoops (count)
system.tol2bus.snoopTraffic                   6742784                       # Total snoop traffic (bytes)
system.tol2bus.snoop_fanout::samples           577565                       # Request fanout histogram
system.tol2bus.snoop_fanout::mean            0.032029                       # Request fanout histogram
system.tol2bus.snoop_fanout::stdev           0.176255                       # Request fanout histogram
system.tol2bus.snoop_fanout::underflows             0      0.00%      0.00% # Request fanout histogram
system.tol2bus.snoop_fanout::0                 559084     96.80%     96.80% # Request fanout histogram
system.tol2bus.snoop_fanout::1                  18463      3.20%    100.00% # Request fanout histogram
system.tol2bus.snoop_fanout::2                     18      0.00%    100.00% # Request fanout histogram
system.tol2bus.snoop_fanout::3                      0      0.00%    100.00% # Request fanout histogram
system.tol2bus.snoop_fanout::4                      0      0.00%    100.00% # Request fanout histogram
system.tol2bus.snoop_fanout::overflows              0      0.00%    100.00% # Request fanout histogram
system.tol2bus.snoop_fanout::min_value              0                       # Request fanout histogram
system.tol2bus.snoop_fanout::max_value              2                       # Request fanout histogram
system.tol2bus.snoop_fanout::total             577565                       # Request fanout histogram
system.tol2bus.reqLayer0.occupancy          745248500                       # Layer occupancy (ticks)
system.tol2bus.reqLayer0.utilization              5.4                       # Layer utilization (%)
system.tol2bus.respLayer1.occupancy         344300728                       # Layer occupancy (ticks)
system.tol2bus.respLayer1.utilization             2.5                       # Layer utilization (%)
system.tol2bus.respLayer0.occupancy         273835922                       # Layer occupancy (ticks)
system.tol2bus.respLayer0.utilization             2.0                       # Layer utilization (%)
system.tol2bus.power_state.pwrStateResidencyTicks::UNDEFINED  13780729000                       # Cumulative time (in ticks) in various power states
system.voltage_domain.voltage                       1                       # Voltage in Volts
system.clk_domain.clock                          1000                       # Clock period in ticks
system.l2.demand_hits::.switch_cpus.inst       164861                       # number of demand (read+write) hits
system.l2.demand_hits::.switch_cpus.data        95794                       # number of demand (read+write) hits
system.l2.demand_hits::total                   260655                       # number of demand (read+write) hits
system.l2.overall_hits::.switch_cpus.inst       164861                       # number of overall hits
system.l2.overall_hits::.switch_cpus.data        95794                       # number of overall hits
system.l2.overall_hits::total                  260655                       # number of overall hits
system.l2.demand_misses::.cpu.inst                  2                       # number of demand (read+write) misses
system.l2.demand_misses::.cpu.data                  1                       # number of demand (read+write) misses
system.l2.demand_misses::.switch_cpus.inst        17504                       # number of demand (read+write) misses
system.l2.demand_misses::.switch_cpus.data       133650                       # number of demand (read+write) misses
system.l2.demand_misses::total                 151157                       # number of demand (read+write) misses
system.l2.overall_misses::.cpu.inst                 2                       # number of overall misses
system.l2.overall_misses::.cpu.data                 1                       # number of overall misses
system.l2.overall_misses::.switch_cpus.inst        17504                       # number of overall misses
system.l2.overall_misses::.switch_cpus.data       133650                       # number of overall misses
system.l2.overall_misses::total                151157                       # number of overall misses
system.l2.demand_miss_latency::.switch_cpus.inst   1497323500                       # number of demand (read+write) miss cycles
system.l2.demand_miss_latency::.switch_cpus.data  10890277000                       # number of demand (read+write) miss cycles
system.l2.demand_miss_latency::total      12387600500                       # number of demand (read+write) miss cycles
system.l2.overall_miss_latency::.switch_cpus.inst   1497323500                       # number of overall miss cycles
system.l2.overall_miss_latency::.switch_cpus.data  10890277000                       # number of overall miss cycles
system.l2.overall_miss_latency::total     12387600500                       # number of overall miss cycles
system.l2.demand_accesses::.cpu.inst                2                       # number of demand (read+write) accesses
system.l2.demand_accesses::.cpu.data                1                       # number of demand (read+write) accesses
system.l2.demand_accesses::.switch_cpus.inst       182365                       # number of demand (read+write) accesses
system.l2.demand_accesses::.switch_cpus.data       229444                       # number of demand (read+write) accesses
system.l2.demand_accesses::total               411812                       # number of demand (read+write) accesses
system.l2.overall_accesses::.cpu.inst               2                       # number of overall (read+write) accesses
system.l2.overall_accesses::.cpu.data               1                       # number of overall (read+write) accesses
system.l2.overall_accesses::.switch_cpus.inst       182365                       # number of overall (read+write) accesses
system.l2.overall_accesses::.switch_cpus.data       229444                       # number of overall (read+write) accesses
system.l2.overall_accesses::total              411812                       # number of overall (read+write) accesses
system.l2.demand_miss_rate::.cpu.inst               1                       # miss rate for demand accesses
system.l2.demand_miss_rate::.cpu.data               1                       # miss rate for demand accesses
system.l2.demand_miss_rate::.switch_cpus.inst     0.095983                       # miss rate for demand accesses
system.l2.demand_miss_rate::.switch_cpus.data     0.582495                       # miss rate for demand accesses
system.l2.demand_miss_rate::total            0.367053                       # miss rate for demand accesses
system.l2.overall_miss_rate::.cpu.inst              1                       # miss rate for overall accesses
system.l2.overall_miss_rate::.cpu.data              1                       # miss rate for overall accesses
system.l2.overall_miss_rate::.switch_cpus.inst     0.095983                       # miss rate for overall accesses
system.l2.overall_miss_rate::.switch_cpus.data     0.582495                       # miss rate for overall accesses
system.l2.overall_miss_rate::total           0.367053                       # miss rate for overall accesses
system.l2.demand_avg_miss_latency::.switch_cpus.inst 85541.790448                       # average overall miss latency
system.l2.demand_avg_miss_latency::.switch_cpus.data 81483.554059                       # average overall miss latency
system.l2.demand_avg_miss_latency::total 81951.881157                       # average overall miss latency
system.l2.overall_avg_miss_latency::.switch_cpus.inst 85541.790448                       # average overall miss latency
system.l2.overall_avg_miss_latency::.switch_cpus.data 81483.554059                       # average overall miss latency
system.l2.overall_avg_miss_latency::total 81951.881157                       # average overall miss latency
system.l2.blocked_cycles::no_mshrs                  0                       # number of cycles access was blocked
system.l2.blocked_cycles::no_targets                0                       # number of cycles access was blocked
system.l2.blocked::no_mshrs                         0                       # number of cycles access was blocked
system.l2.blocked::no_targets                       0                       # number of cycles access was blocked
system.l2.avg_blocked_cycles::no_mshrs            nan                       # average number of cycles each access was blocked
system.l2.avg_blocked_cycles::no_targets          nan                       # average number of cycles each access was blocked
system.l2.writebacks::.writebacks              105355                       # number of writebacks
system.l2.writebacks::total                    105355                       # number of writebacks
system.l2.demand_mshr_hits::.switch_cpus.inst            1                       # number of demand (read+write) MSHR hits
system.l2.demand_mshr_hits::.switch_cpus.data            2                       # number of demand (read+write) MSHR hits
system.l2.demand_mshr_hits::total                   3                       # number of demand (read+write) MSHR hits
system.l2.overall_mshr_hits::.switch_cpus.inst            1                       # number of overall MSHR hits
system.l2.overall_mshr_hits::.switch_cpus.data            2                       # number of overall MSHR hits
system.l2.overall_mshr_hits::total                  3                       # number of overall MSHR hits
system.l2.demand_mshr_misses::.switch_cpus.inst        17503                       # number of demand (read+write) MSHR misses
system.l2.demand_mshr_misses::.switch_cpus.data       133648                       # number of demand (read+write) MSHR misses
system.l2.demand_mshr_misses::total            151151                       # number of demand (read+write) MSHR misses
system.l2.overall_mshr_misses::.switch_cpus.inst        17503                       # number of overall MSHR misses
system.l2.overall_mshr_misses::.switch_cpus.data       133648                       # number of overall MSHR misses
system.l2.overall_mshr_misses::total           151151                       # number of overall MSHR misses
system.l2.demand_mshr_miss_latency::.switch_cpus.inst   1322197000                       # number of demand (read+write) MSHR miss cycles
system.l2.demand_mshr_miss_latency::.switch_cpus.data   9553686000                       # number of demand (read+write) MSHR miss cycles
system.l2.demand_mshr_miss_latency::total  10875883000                       # number of demand (read+write) MSHR miss cycles
system.l2.overall_mshr_miss_latency::.switch_cpus.inst   1322197000                       # number of overall MSHR miss cycles
system.l2.overall_mshr_miss_latency::.switch_cpus.data   9553686000                       # number of overall MSHR miss cycles
system.l2.overall_mshr_miss_latency::total  10875883000                       # number of overall MSHR miss cycles
system.l2.demand_mshr_miss_rate::.switch_cpus.inst     0.095978                       # mshr miss rate for demand accesses
system.l2.demand_mshr_miss_rate::.switch_cpus.data     0.582486                       # mshr miss rate for demand accesses
system.l2.demand_mshr_miss_rate::total       0.367039                       # mshr miss rate for demand accesses
system.l2.overall_mshr_miss_rate::.switch_cpus.inst     0.095978                       # mshr miss rate for overall accesses
system.l2.overall_mshr_miss_rate::.switch_cpus.data     0.582486                       # mshr miss rate for overall accesses
system.l2.overall_mshr_miss_rate::total      0.367039                       # mshr miss rate for overall accesses
system.l2.demand_avg_mshr_miss_latency::.switch_cpus.inst 75541.164372                       # average overall mshr miss latency
system.l2.demand_avg_mshr_miss_latency::.switch_cpus.data 71483.942895                       # average overall mshr miss latency
system.l2.demand_avg_mshr_miss_latency::total 71953.761470                       # average overall mshr miss latency
system.l2.overall_avg_mshr_miss_latency::.switch_cpus.inst 75541.164372                       # average overall mshr miss latency
system.l2.overall_avg_mshr_miss_latency::.switch_cpus.data 71483.942895                       # average overall mshr miss latency
system.l2.overall_avg_mshr_miss_latency::total 71953.761470                       # average overall mshr miss latency
system.l2.replacements                         165751                       # number of replacements
system.l2.WritebackDirty_hits::.writebacks       151200                       # number of WritebackDirty hits
system.l2.WritebackDirty_hits::total           151200                       # number of WritebackDirty hits
system.l2.WritebackDirty_accesses::.writebacks       151200                       # number of WritebackDirty accesses(hits+misses)
system.l2.WritebackDirty_accesses::total       151200                       # number of WritebackDirty accesses(hits+misses)
system.l2.WritebackClean_hits::.writebacks       182283                       # number of WritebackClean hits
system.l2.WritebackClean_hits::total           182283                       # number of WritebackClean hits
system.l2.WritebackClean_accesses::.writebacks       182283                       # number of WritebackClean accesses(hits+misses)
system.l2.WritebackClean_accesses::total       182283                       # number of WritebackClean accesses(hits+misses)
system.l2.CleanEvict_mshr_misses::.writebacks         3454                       # number of CleanEvict MSHR misses
system.l2.CleanEvict_mshr_misses::total          3454                       # number of CleanEvict MSHR misses
system.l2.CleanEvict_mshr_miss_rate::.writebacks          inf                       # mshr miss rate for CleanEvict accesses
system.l2.CleanEvict_mshr_miss_rate::total          inf                       # mshr miss rate for CleanEvict accesses
system.l2.UpgradeReq_hits::.switch_cpus.data            1                       # number of UpgradeReq hits
system.l2.UpgradeReq_hits::total                    1                       # number of UpgradeReq hits
system.l2.UpgradeReq_accesses::.switch_cpus.data            1                       # number of UpgradeReq accesses(hits+misses)
system.l2.UpgradeReq_accesses::total                1                       # number of UpgradeReq accesses(hits+misses)
system.l2.ReadExReq_hits::.switch_cpus.data        19940                       # number of ReadExReq hits
system.l2.ReadExReq_hits::total                 19940                       # number of ReadExReq hits
system.l2.ReadExReq_misses::.cpu.data               1                       # number of ReadExReq misses
system.l2.ReadExReq_misses::.switch_cpus.data        95398                       # number of ReadExReq misses
system.l2.ReadExReq_misses::total               95399                       # number of ReadExReq misses
system.l2.ReadExReq_miss_latency::.switch_cpus.data   7641123500                       # number of ReadExReq miss cycles
system.l2.ReadExReq_miss_latency::total    7641123500                       # number of ReadExReq miss cycles
system.l2.ReadExReq_accesses::.cpu.data             1                       # number of ReadExReq accesses(hits+misses)
system.l2.ReadExReq_accesses::.switch_cpus.data       115338                       # number of ReadExReq accesses(hits+misses)
system.l2.ReadExReq_accesses::total            115339                       # number of ReadExReq accesses(hits+misses)
system.l2.ReadExReq_miss_rate::.cpu.data            1                       # miss rate for ReadExReq accesses
system.l2.ReadExReq_miss_rate::.switch_cpus.data     0.827117                       # miss rate for ReadExReq accesses
system.l2.ReadExReq_miss_rate::total         0.827118                       # miss rate for ReadExReq accesses
system.l2.ReadExReq_avg_miss_latency::.switch_cpus.data 80097.313361                       # average ReadExReq miss latency
system.l2.ReadExReq_avg_miss_latency::total 80096.473758                       # average ReadExReq miss latency
system.l2.ReadExReq_mshr_misses::.switch_cpus.data        95398                       # number of ReadExReq MSHR misses
system.l2.ReadExReq_mshr_misses::total          95398                       # number of ReadExReq MSHR misses
system.l2.ReadExReq_mshr_miss_latency::.switch_cpus.data   6687153500                       # number of ReadExReq MSHR miss cycles
system.l2.ReadExReq_mshr_miss_latency::total   6687153500                       # number of ReadExReq MSHR miss cycles
system.l2.ReadExReq_mshr_miss_rate::.switch_cpus.data     0.827117                       # mshr miss rate for ReadExReq accesses
system.l2.ReadExReq_mshr_miss_rate::total     0.827110                       # mshr miss rate for ReadExReq accesses
[...]
system.cpu.itb.walker.power_state.pwrStateResidencyTicks::UNDEFINED  14950868000                       # Cumulative time (in ticks) in various power states
system.cpu.dtb_walker_cache.blocked_cycles::no_mshrs            0                       # number of cycles access was blocked
system.cpu.dtb_walker_cache.blocked_cycles::no_targets            0                       # number of cycles access was blocked
system.cpu.dtb_walker_cache.blocked::no_mshrs            0                       # number of cycles access was blocked
system.cpu.dtb_walker_cache.blocked::no_targets            0                       # number of cycles access was blocked
system.cpu.dtb_walker_cache.avg_blocked_cycles::no_mshrs          nan                       # average number of cycles each access was blocked
system.cpu.dtb_walker_cache.avg_blocked_cycles::no_targets          nan                       # average number of cycles each access was blocked
system.cpu.dtb_walker_cache.replacements            0                       # number of replacements
system.cpu.dtb_walker_cache.power_state.pwrStateResidencyTicks::UNDEFINED  14950868000                       # Cumulative time (in ticks) in various power states
system.cpu.dtb_walker_cache.tags.tagsinuse            0                       # Cycle average of tags in use
system.cpu.dtb_walker_cache.tags.total_refs            0                       # Total number of references to valid blocks.
system.cpu.dtb_walker_cache.tags.sampled_refs            0                       # Sample count of references to valid blocks.
system.cpu.dtb_walker_cache.tags.avg_refs          nan                       # Average number of references to valid blocks.
system.cpu.dtb_walker_cache.tags.warmup_cycle            0                       # Cycle when the warmup percentage was hit.
system.cpu.dtb_walker_cache.tags.tag_accesses            0                       # Number of tag accesses
system.cpu.dtb_walker_cache.tags.data_accesses            0                       # Number of data accesses
system.cpu.dtb_walker_cache.tags.power_state.pwrStateResidencyTicks::UNDEFINED  14950868000                       # Cumulative time (in ticks) in various power states
system.cpu.dcache.demand_hits::.cpu.data            6                       # number of demand (read+write) hits
system.cpu.dcache.demand_hits::.switch_cpus.data      4698830                       # number of demand (read+write) hits
system.cpu.dcache.demand_hits::total          4698836                       # number of demand (read+write) hits
system.cpu.dcache.overall_hits::.cpu.data            6                       # number of overall hits
system.cpu.dcache.overall_hits::.switch_cpus.data      4699121                       # number of overall hits
system.cpu.dcache.overall_hits::total         4699127                       # number of overall hits
system.cpu.dcache.demand_misses::.cpu.data            1                       # number of demand (read+write) misses
system.cpu.dcache.demand_misses::.switch_cpus.data       381953                       # number of demand (read+write) misses
system.cpu.dcache.demand_misses::total         381954                       # number of demand (read+write) misses
system.cpu.dcache.overall_misses::.cpu.data            1                       # number of overall misses
system.cpu.dcache.overall_misses::.switch_cpus.data       392140                       # number of overall misses
system.cpu.dcache.overall_misses::total        392141                       # number of overall misses
system.cpu.dcache.demand_miss_latency::.switch_cpus.data  19965697358                       # number of demand (read+write) miss cycles
system.cpu.dcache.demand_miss_latency::total  19965697358                       # number of demand (read+write) miss cycles
system.cpu.dcache.overall_miss_latency::.switch_cpus.data  19965697358                       # number of overall miss cycles
system.cpu.dcache.overall_miss_latency::total  19965697358                       # number of overall miss cycles
system.cpu.dcache.demand_accesses::.cpu.data            7                       # number of demand (read+write) accesses
system.cpu.dcache.demand_accesses::.switch_cpus.data      5080783                       # number of demand (read+write) accesses
system.cpu.dcache.demand_accesses::total      5080790                       # number of demand (read+write) accesses
system.cpu.dcache.overall_accesses::.cpu.data            7                       # number of overall (read+write) accesses
system.cpu.dcache.overall_accesses::.switch_cpus.data      5091261                       # number of overall (read+write) accesses
system.cpu.dcache.overall_accesses::total      5091268                       # number of overall (read+write) accesses
system.cpu.dcache.demand_miss_rate::.cpu.data     0.142857                       # miss rate for demand accesses
system.cpu.dcache.demand_miss_rate::.switch_cpus.data     0.075176                       # miss rate for demand accesses
system.cpu.dcache.demand_miss_rate::total     0.075176                       # miss rate for demand accesses
system.cpu.dcache.overall_miss_rate::.cpu.data     0.142857                       # miss rate for overall accesses
system.cpu.dcache.overall_miss_rate::.switch_cpus.data     0.077022                       # miss rate for overall accesses
system.cpu.dcache.overall_miss_rate::total     0.077022                       # miss rate for overall accesses
system.cpu.dcache.demand_avg_miss_latency::.switch_cpus.data 52272.654903                       # average overall miss latency
system.cpu.dcache.demand_avg_miss_latency::total 52272.518047                       # average overall miss latency
system.cpu.dcache.overall_avg_miss_latency::.switch_cpus.data 50914.717596                       # average overall miss latency
system.cpu.dcache.overall_avg_miss_latency::total 50914.587758                       # average overall miss latency
system.cpu.dcache.blocked_cycles::no_mshrs       475450                       # number of cycles access was blocked
system.cpu.dcache.blocked_cycles::no_targets         3454                       # number of cycles access was blocked
system.cpu.dcache.blocked::no_mshrs             13111                       # number of cycles access was blocked
system.cpu.dcache.blocked::no_targets              34                       # number of cycles access was blocked
system.cpu.dcache.avg_blocked_cycles::no_mshrs    36.263443                       # average number of cycles each access was blocked
system.cpu.dcache.avg_blocked_cycles::no_targets   101.588235                       # average number of cycles each access was blocked
system.cpu.dcache.writebacks::.writebacks       166496                       # number of writebacks
system.cpu.dcache.writebacks::total            166496                       # number of writebacks
system.cpu.dcache.demand_mshr_hits::.switch_cpus.data       137357                       # number of demand (read+write) MSHR hits
system.cpu.dcache.demand_mshr_hits::total       137357                       # number of demand (read+write) MSHR hits
system.cpu.dcache.overall_mshr_hits::.switch_cpus.data       137357                       # number of overall MSHR hits
system.cpu.dcache.overall_mshr_hits::total       137357                       # number of overall MSHR hits
system.cpu.dcache.demand_mshr_misses::.switch_cpus.data       244596                       # number of demand (read+write) MSHR misses
system.cpu.dcache.demand_mshr_misses::total       244596                       # number of demand (read+write) MSHR misses
system.cpu.dcache.overall_mshr_misses::.switch_cpus.data       254780                       # number of overall MSHR misses
system.cpu.dcache.overall_mshr_misses::total       254780                       # number of overall MSHR misses
system.cpu.dcache.demand_mshr_miss_latency::.switch_cpus.data  12792944369                       # number of demand (read+write) MSHR miss cycles
system.cpu.dcache.demand_mshr_miss_latency::total  12792944369                       # number of demand (read+write) MSHR miss cycles
system.cpu.dcache.overall_mshr_miss_latency::.switch_cpus.data  13717512369                       # number of overall MSHR miss cycles
system.cpu.dcache.overall_mshr_miss_latency::total  13717512369                       # number of overall MSHR miss cycles
system.cpu.dcache.demand_mshr_miss_rate::.switch_cpus.data     0.048141                       # mshr miss rate for demand accesses
system.cpu.dcache.demand_mshr_miss_rate::total     0.048141                       # mshr miss rate for demand accesses
system.cpu.dcache.overall_mshr_miss_rate::.switch_cpus.data     0.050043                       # mshr miss rate for overall accesses
system.cpu.dcache.overall_mshr_miss_rate::total     0.050043                       # mshr miss rate for overall accesses
system.cpu.dcache.demand_avg_mshr_miss_latency::.switch_cpus.data 52302.344965                       # average overall mshr miss latency
system.cpu.dcache.demand_avg_mshr_miss_latency::total 52302.344965                       # average overall mshr miss latency
system.cpu.dcache.overall_avg_mshr_miss_latency::.switch_cpus.data 53840.616881                       # average overall mshr miss latency
system.cpu.dcache.overall_avg_mshr_miss_latency::total 53840.616881                       # average overall mshr miss latency
system.cpu.dcache.replacements                 254715                       # number of replacements
system.cpu.dcache.ReadReq_hits::.switch_cpus.data      2940329                       # number of ReadReq hits
system.cpu.dcache.ReadReq_hits::total         2940329                       # number of ReadReq hits
system.cpu.dcache.ReadReq_misses::.switch_cpus.data       258696                       # number of ReadReq misses
system.cpu.dcache.ReadReq_misses::total        258696                       # number of ReadReq misses
system.cpu.dcache.ReadReq_miss_latency::.switch_cpus.data  11326308500                       # number of ReadReq miss cycles
system.cpu.dcache.ReadReq_miss_latency::total  11326308500                       # number of ReadReq miss cycles
system.cpu.dcache.ReadReq_accesses::.switch_cpus.data      3199025                       # number of ReadReq accesses(hits+misses)
system.cpu.dcache.ReadReq_accesses::total      3199025                       # number of ReadReq accesses(hits+misses)
system.cpu.dcache.ReadReq_miss_rate::.switch_cpus.data     0.080867                       # miss rate for ReadReq accesses
system.cpu.dcache.ReadReq_miss_rate::total     0.080867                       # miss rate for ReadReq accesses
system.cpu.dcache.ReadReq_avg_miss_latency::.switch_cpus.data 43782.310125                       # average ReadReq miss latency
system.cpu.dcache.ReadReq_avg_miss_latency::total 43782.310125                       # average ReadReq miss latency
system.cpu.dcache.ReadReq_mshr_hits::.switch_cpus.data       136743                       # number of ReadReq MSHR hits
system.cpu.dcache.ReadReq_mshr_hits::total       136743                       # number of ReadReq MSHR hits
system.cpu.dcache.ReadReq_mshr_misses::.switch_cpus.data       121953                       # number of ReadReq MSHR misses
system.cpu.dcache.ReadReq_mshr_misses::total       121953                       # number of ReadReq MSHR misses
system.cpu.dcache.ReadReq_mshr_miss_latency::.switch_cpus.data   4288941000                       # number of ReadReq MSHR miss cycles
system.cpu.dcache.ReadReq_mshr_miss_latency::total   4288941000                       # number of ReadReq MSHR miss cycles
system.cpu.dcache.ReadReq_mshr_miss_rate::.switch_cpus.data     0.038122                       # mshr miss rate for ReadReq accesses
system.cpu.dcache.ReadReq_mshr_miss_rate::total     0.038122                       # mshr miss rate for ReadReq accesses
system.cpu.dcache.ReadReq_avg_mshr_miss_latency::.switch_cpus.data 35168.802735                       # average ReadReq mshr miss latency
system.cpu.dcache.ReadReq_avg_mshr_miss_latency::total 35168.802735                       # average ReadReq mshr miss latency
system.cpu.dcache.WriteReq_hits::.cpu.data            6                       # number of WriteReq hits
system.cpu.dcache.WriteReq_hits::.switch_cpus.data      1758501                       # number of WriteReq hits
system.cpu.dcache.WriteReq_hits::total        1758507                       # number of WriteReq hits
system.cpu.dcache.WriteReq_misses::.cpu.data            1                       # number of WriteReq misses
system.cpu.dcache.WriteReq_misses::.switch_cpus.data       123257                       # number of WriteReq misses
system.cpu.dcache.WriteReq_misses::total       123258                       # number of WriteReq misses
system.cpu.dcache.WriteReq_miss_latency::.switch_cpus.data   8639388858                       # number of WriteReq miss cycles
system.cpu.dcache.WriteReq_miss_latency::total   8639388858                       # number of WriteReq miss cycles
system.cpu.dcache.WriteReq_accesses::.cpu.data            7                       # number of WriteReq accesses(hits+misses)
system.cpu.dcache.WriteReq_accesses::.switch_cpus.data      1881758                       # number of WriteReq accesses(hits+misses)
system.cpu.dcache.WriteReq_accesses::total      1881765                       # number of WriteReq accesses(hits+misses)
system.cpu.dcache.WriteReq_miss_rate::.cpu.data     0.142857                       # miss rate for WriteReq accesses
system.cpu.dcache.WriteReq_miss_rate::.switch_cpus.data     0.065501                       # miss rate for WriteReq accesses
system.cpu.dcache.WriteReq_miss_rate::total     0.065501                       # miss rate for WriteReq accesses
system.cpu.dcache.WriteReq_avg_miss_latency::.switch_cpus.data 70092.480411                       # average WriteReq miss latency
system.cpu.dcache.WriteReq_avg_miss_latency::total 70091.911746                       # average WriteReq miss latency
system.cpu.dcache.WriteReq_mshr_hits::.switch_cpus.data          614                       # number of WriteReq MSHR hits
system.cpu.dcache.WriteReq_mshr_hits::total          614                       # number of WriteReq MSHR hits
system.cpu.dcache.WriteReq_mshr_misses::.switch_cpus.data       122643                       # number of WriteReq MSHR misses
system.cpu.dcache.WriteReq_mshr_misses::total       122643                       # number of WriteReq MSHR misses
system.cpu.dcache.WriteReq_mshr_miss_latency::.switch_cpus.data   8504003369                       # number of WriteReq MSHR miss cycles
system.cpu.dcache.WriteReq_mshr_miss_latency::total   8504003369                       # number of WriteReq MSHR miss cycles
system.cpu.dcache.WriteReq_mshr_miss_rate::.switch_cpus.data     0.065175                       # mshr miss rate for WriteReq accesses
system.cpu.dcache.WriteReq_mshr_miss_rate::total     0.065174                       # mshr miss rate for WriteReq accesses
system.cpu.dcache.WriteReq_avg_mshr_miss_latency::.switch_cpus.data 69339.492421                       # average WriteReq mshr miss latency
system.cpu.dcache.WriteReq_avg_mshr_miss_latency::total 69339.492421                       # average WriteReq mshr miss latency
system.cpu.dcache.SoftPFReq_hits::.switch_cpus.data          291                       # number of SoftPFReq hits
system.cpu.dcache.SoftPFReq_hits::total           291                       # number of SoftPFReq hits
system.cpu.dcache.SoftPFReq_misses::.switch_cpus.data        10187                       # number of SoftPFReq misses
system.cpu.dcache.SoftPFReq_misses::total        10187                       # number of SoftPFReq misses
system.cpu.dcache.SoftPFReq_accesses::.switch_cpus.data        10478                       # number of SoftPFReq accesses(hits+misses)
system.cpu.dcache.SoftPFReq_accesses::total        10478                       # number of SoftPFReq accesses(hits+misses)
system.cpu.dcache.SoftPFReq_miss_rate::.switch_cpus.data     0.972228                       # miss rate for SoftPFReq accesses
system.cpu.dcache.SoftPFReq_miss_rate::total     0.972228                       # miss rate for SoftPFReq accesses
system.cpu.dcache.SoftPFReq_mshr_misses::.switch_cpus.data        10184                       # number of SoftPFReq MSHR misses
system.cpu.dcache.SoftPFReq_mshr_misses::total        10184                       # number of SoftPFReq MSHR misses
system.cpu.dcache.SoftPFReq_mshr_miss_latency::.switch_cpus.data    924568000                       # number of SoftPFReq MSHR miss cycles
system.cpu.dcache.SoftPFReq_mshr_miss_latency::total    924568000                       # number of SoftPFReq MSHR miss cycles
system.cpu.dcache.SoftPFReq_mshr_miss_rate::.switch_cpus.data     0.971941                       # mshr miss rate for SoftPFReq accesses
system.cpu.dcache.SoftPFReq_mshr_miss_rate::total     0.971941                       # mshr miss rate for SoftPFReq accesses
system.cpu.dcache.SoftPFReq_avg_mshr_miss_latency::.switch_cpus.data 90786.331500                       # average SoftPFReq mshr miss latency
system.cpu.dcache.SoftPFReq_avg_mshr_miss_latency::total 90786.331500                       # average SoftPFReq mshr miss latency
system.cpu.dcache.power_state.pwrStateResidencyTicks::UNDEFINED  14950868000                       # Cumulative time (in ticks) in various power states
system.cpu.dcache.tags.tagsinuse            63.988585                       # Cycle average of tags in use
system.cpu.dcache.tags.total_refs             4953907                       # Total number of references to valid blocks.
system.cpu.dcache.tags.sampled_refs            254779                       # Sample count of references to valid blocks.
system.cpu.dcache.tags.avg_refs             19.443938                       # Average number of references to valid blocks.
system.cpu.dcache.tags.warmup_cycle              1500                       # Cycle when the warmup percentage was hit.
system.cpu.dcache.tags.occ_blocks::.cpu.data     0.000508                       # Average occupied blocks per requestor
system.cpu.dcache.tags.occ_blocks::.switch_cpus.data    63.988077                       # Average occupied blocks per requestor
system.cpu.dcache.tags.occ_percent::.cpu.data     0.000008                       # Average percentage of cache occupancy
system.cpu.dcache.tags.occ_percent::.switch_cpus.data     0.999814                       # Average percentage of cache occupancy
system.cpu.dcache.tags.occ_percent::total     0.999822                       # Average percentage of cache occupancy
system.cpu.dcache.tags.occ_task_id_blocks::1024           64                       # Occupied blocks per task id
system.cpu.dcache.tags.age_task_id_blocks_1024::0           37                       # Occupied blocks per task id
system.cpu.dcache.tags.age_task_id_blocks_1024::1           27                       # Occupied blocks per task id
system.cpu.dcache.tags.occ_task_id_percent::1024            1                       # Percentage of cache occupancy per task id
system.cpu.dcache.tags.tag_accesses          10437315                       # Number of tag accesses
system.cpu.dcache.tags.data_accesses         10437315                       # Number of data accesses
system.cpu.dcache.tags.power_state.pwrStateResidencyTicks::UNDEFINED  14950868000                       # Cumulative time (in ticks) in various power states
system.cpu.power_state.numTransitions               1                       # Number of power state transitions
system.cpu.power_state.pwrStateResidencyTicks::ON        10500                       # Cumulative time (in ticks) in various power states
system.cpu.power_state.pwrStateResidencyTicks::OFF  14950857500                       # Cumulative time (in ticks) in various power states

---------- End Simulation Statistics   ----------
