
---------- Begin Simulation Statistics ----------
final_tick                                14048077500                       # Number of ticks from beginning of simulation (restored from checkpoints and never reset)
host_inst_rate                                 106916                       # Simulator instruction rate (inst/s)
host_mem_usage                                 879296                       # Number of bytes of host memory used
host_op_rate                                   204700                       # Simulator op (including micro ops) rate (op/s)
host_seconds                                    93.53                       # Real time elapsed on the host
host_tick_rate                              150196606                       # Simulator tick rate (ticks/s)
sim_freq                                 1000000000000                       # Frequency of simulated ticks
sim_insts                                    10000011                       # Number of instructions simulated
sim_ops                                      19145816                       # Number of ops (including micro ops) simulated
sim_seconds                                  0.014048                       # Number of seconds simulated
sim_ticks                                 14048077500                       # Number of ticks simulated
system.cpu.Branches                                 1                       # Number of branches fetched
system.cpu.committedInsts                          10                       # Number of instructions committed
system.cpu.committedOps                            21                       # Number of ops (including micro ops) committed
system.cpu.dtb.rdAccesses                           0                       # TLB accesses on read requests
system.cpu.dtb.rdMisses                             0                       # TLB misses on read requests
system.cpu.dtb.wrAccesses                           7                       # TLB accesses on write requests
system.cpu.dtb.wrMisses                             1                       # TLB misses on write requests
system.cpu.idle_fraction                            0                       # Percentage of idle cycles
system.cpu.itb.rdAccesses                           0                       # TLB accesses on read requests
system.cpu.itb.rdMisses                             0                       # TLB misses on read requests
system.cpu.itb.wrAccesses                          10                       # TLB accesses on write requests
system.cpu.itb.wrMisses                             0                       # TLB misses on write requests
system.cpu.not_idle_fraction                        1                       # Percentage of non-idle cycles
system.cpu.numCycles                               21                       # number of cpu cycles simulated
system.cpu.numWorkItemsCompleted                    0                       # number of work items this cpu completed
system.cpu.numWorkItemsStarted                      0                       # number of work items this cpu started
system.cpu.num_busy_cycles                         21                       # Number of busy cycles
system.cpu.num_cc_register_writes                   2                       # number of times the CC registers were written
system.cpu.num_conditional_control_insts            0                       # number of instructions that are conditional controls
system.cpu.num_fp_alu_accesses                      0                       # Number of float alu accesses
system.cpu.num_fp_insts                             0                       # number of float instructions
system.cpu.num_fp_register_reads                    0                       # number of times the floating registers were read
system.cpu.num_fp_register_writes                   0                       # number of times the floating registers were written
system.cpu.num_func_calls                           1                       # number of times a function call or return occured
system.cpu.num_idle_cycles                          0                       # Number of idle cycles
system.cpu.num_int_alu_accesses                    21                       # Number of integer alu accesses
system.cpu.num_int_insts                           21                       # number of integer instructions
system.cpu.num_int_register_reads                  47                       # number of times the integer registers were read
system.cpu.num_int_register_writes                 13                       # number of times the integer registers were written
system.cpu.num_load_insts                           0                       # Number of load instructions
system.cpu.num_mem_refs                             7                       # number of memory refs
system.cpu.num_store_insts                          7                       # Number of store instructions
system.cpu.num_vec_alu_accesses                     0                       # Number of vector alu accesses
system.cpu.num_vec_insts                            0                       # number of vector instructions
system.cpu.num_vec_register_reads                   0                       # number of times the vector registers were read
system.cpu.num_vec_register_writes                  0                       # number of times the vector registers were written
system.cpu.op_class::No_OpClass                     0      0.00%      0.00% # Class of executed instruction
system.cpu.op_class::IntAlu                        14     66.67%     66.67% # Class of executed instruction
system.cpu.op_class::IntMult                        0      0.00%     66.67% # Class of executed instruction
system.cpu.op_class::IntDiv                         0      0.00%     66.67% # Class of executed instruction
system.cpu.op_class::FloatAdd                       0      0.00%     66.67% # Class of executed instruction
system.cpu.op_class::FloatCmp                       0      0.00%     66.67% # Class of executed instruction
system.cpu.op_class::FloatCvt                       0      0.00%     66.67% # Class of executed instruction
system.cpu.op_class::FloatMult                      0      0.00%     66.67% # Class of executed instruction
system.cpu.op_class::FloatMultAcc                   0      0.00%     66.67% # Class of executed instruction
system.cpu.op_class::FloatDiv                       0      0.00%     66.67% # Class of executed instruction
system.cpu.op_class::FloatMisc                      0      0.00%     66.67% # Class of executed instruction
system.cpu.op_class::FloatSqrt                      0      0.00%     66.67% # Class of executed instruction
system.cpu.op_class::SimdAdd                        0      0.00%     66.67% # Class of executed instruction
system.cpu.op_class::SimdAddAcc                     0      0.00%     66.67% # Class of executed instruction
system.cpu.op_class::SimdAlu                        0      0.00%     66.67% # Class of executed instruction
system.cpu.op_class::SimdCmp                        0      0.00%     66.67% # Class of executed instruction
system.cpu.op_class::SimdCvt                        0      0.00%     66.67% # Class of executed instruction
system.cpu.op_class::SimdMisc                       0      0.00%     66.67% # Class of executed instruction
system.cpu.op_class::SimdMult                       0      0.00%     66.67% # Class of executed instruction
system.cpu.op_class::SimdMultAcc                    0      0.00%     66.67% # Class of executed instruction
system.cpu.op_class::SimdShift                      0      0.00%     66.67% # Class of executed instruction
system.cpu.op_class::SimdShiftAcc                   0      0.00%     66.67% # Class of executed instruction
system.cpu.op_class::SimdDiv                        0      0.00%     66.67% # Class of executed instruction
system.cpu.op_class::SimdSqrt                       0      0.00%     66.67% # Class of executed instruction
system.cpu.op_class::SimdFloatAdd                   0      0.00%     66.67% # Class of executed instruction
system.cpu.op_class::SimdFloatAlu                   0      0.00%     66.67% # Class of executed instruction
system.cpu.op_class::SimdFloatCmp                   0      0.00%     66.67% # Class of executed instruction
system.cpu.op_class::SimdFloatCvt                   0      0.00%     66.67% # Class of executed instruction
system.cpu.op_class::SimdFloatDiv                   0      0.00%     66.67% # Class of executed instruction
system.cpu.op_class::SimdFloatMisc                  0      0.00%     66.67% # Class of executed instruction
system.cpu.op_class::SimdFloatMult                  0      0.00%     66.67% # Class of executed instruction
system.cpu.op_class::SimdFloatMultAcc               0      0.00%     66.67% # Class of executed instruction
system.cpu.op_class::SimdFloatSqrt                  0      0.00%     66.67% # Class of executed instruction
system.cpu.op_class::SimdReduceAdd                  0      0.00%     66.67% # Class of executed instruction
system.cpu.op_class::SimdReduceAlu                  0      0.00%     66.67% # Class of executed instruction
system.cpu.op_class::SimdReduceCmp                  0      0.00%     66.67% # Class of executed instruction
system.cpu.op_class::SimdFloatReduceAdd             0      0.00%     66.67% # Class of executed instruction
system.cpu.op_class::SimdFloatReduceCmp             0      0.00%     66.67% # Class of executed instruction
system.cpu.op_class::SimdAes                        0      0.00%     66.67% # Class of executed instruction
system.cpu.op_class::SimdAesMix                     0      0.00%     66.67% # Class of executed instruction
system.cpu.op_class::SimdSha1Hash                   0      0.00%     66.67% # Class of executed instruction
system.cpu.op_class::SimdSha1Hash2                  0      0.00%     66.67% # Class of executed instruction
system.cpu.op_class::SimdSha256Hash                 0      0.00%     66.67% # Class of executed instruction
system.cpu.op_class::SimdSha256Hash2                0      0.00%     66.67% # Class of executed instruction
system.cpu.op_class::SimdShaSigma2                  0      0.00%     66.67% # Class of executed instruction
system.cpu.op_class::SimdShaSigma3                  0      0.00%     66.67% # Class of executed instruction
system.cpu.op_class::SimdPredAlu                    0      0.00%     66.67% # Class of executed instruction
system.cpu.op_class::MemRead                        0      0.00%     66.67% # Class of executed instruction
system.cpu.op_class::MemWrite                       7     33.33%    100.00% # Class of executed instruction
system.cpu.op_class::FloatMemRead                   0      0.00%    100.00% # Class of executed instruction
system.cpu.op_class::FloatMemWrite                  0      0.00%    100.00% # Class of executed instruction
system.cpu.op_class::IprAccess                      0      0.00%    100.00% # Class of executed instruction
system.cpu.op_class::InstPrefetch                   0      0.00%    100.00% # Class of executed instruction
system.cpu.op_class::total                         21                       # Class of executed instruction
system.cpu.workload.numSyscalls                    54                       # Number of system calls
system.membus.snoop_filter.hit_multi_requests            0                       # Number of requests hitting in the snoop filter with multiple (>1) holders of the requested data.
system.membus.snoop_filter.hit_multi_snoops            0                       # Number of snoops hitting in the snoop filter with multiple (>1) holders of the requested data.
system.membus.snoop_filter.hit_single_requests        97648                       # Number of requests hitting in the snoop filter with a single holder of the requested data.
system.membus.snoop_filter.hit_single_snoops            0                       # Number of snoops hitting in the snoop filter with a single holder of the requested data.
system.membus.snoop_filter.tot_requests        195606                       # Total number of requests made to the snoop filter.
system.membus.snoop_filter.tot_snoops               0                       # Total number of snoops made to the snoop filter.
system.switch_cpus.branchPred.BTBCorrect            0                       # Number of correct BTB predictions (this stat may not work properly.
system.switch_cpus.branchPred.BTBHitPct           nan                       # BTB Hit Percentage
system.switch_cpus.branchPred.BTBHits               0                       # Number of BTB hits
system.switch_cpus.branchPred.BTBLookups            0                       # Number of BTB lookups
system.switch_cpus.branchPred.RASInCorrect           20                       # Number of incorrect RAS predictions.
system.switch_cpus.branchPred.condIncorrect        67929                       # Number of conditional branches incorrect
system.switch_cpus.branchPred.condPredicted      2344955                       # Number of conditional branches predicted
system.switch_cpus.branchPred.indirectHits       815429                       # Number of indirect target hits.
system.switch_cpus.branchPred.indirectLookups       917543                       # Number of indirect predictor lookups.
system.switch_cpus.branchPred.indirectMisses       102114                       # Number of indirect misses.
system.switch_cpus.branchPred.lookups         2570869                       # Number of BP lookups
system.switch_cpus.branchPred.usedRAS          116301                       # Number of times the RAS was used to get a target.
system.switch_cpus.branchPredindirectMispredicted        51478                       # Number of mispredicted indirect branches.
system.switch_cpus.cc_regfile_reads          12374515                       # number of cc regfile reads
system.switch_cpus.cc_regfile_writes          6321996                       # number of cc regfile writes
system.switch_cpus.commit.amos                      0                       # Number of atomic instructions committed
system.switch_cpus.commit.branchMispredicts        68682                       # The number of times a branch was mispredicted
system.switch_cpus.commit.branches            2332991                       # Number of branches committed
system.switch_cpus.commit.bw_lim_events        807518                       # number cycles where commit BW limit reached
system.switch_cpus.commit.commitNonSpecStalls          126                       # The number of times commit has been forced to stall to communicate backwards
system.switch_cpus.commit.commitSquashedInsts      1472598                       # The number of squashed insts skipped by commit
system.switch_cpus.commit.committedInsts     10000001                       # Number of instructions committed
system.switch_cpus.commit.committedOps       19145795                       # Number of ops (including micro ops) committed
system.switch_cpus.commit.committed_per_cycle::samples     21049395                       # Number of insts commited each cycle
system.switch_cpus.commit.committed_per_cycle::mean     0.909565                       # Number of insts commited each cycle
system.switch_cpus.commit.committed_per_cycle::stdev     1.950871                       # Number of insts commited each cycle
system.switch_cpus.commit.committed_per_cycle::underflows            0      0.00%      0.00% # Number of insts commited each cycle
system.switch_cpus.commit.committed_per_cycle::0     15479012     73.54%     73.54% # Number of insts commited each cycle
system.switch_cpus.commit.committed_per_cycle::1      1486330      7.06%     80.60% # Number of insts commited each cycle
system.switch_cpus.commit.committed_per_cycle::2       972960      4.62%     85.22% # Number of insts commited each cycle
system.switch_cpus.commit.committed_per_cycle::3      1105526      5.25%     90.47% # Number of insts commited each cycle
system.switch_cpus.commit.committed_per_cycle::4       483442      2.30%     92.77% # Number of insts commited each cycle
system.switch_cpus.commit.committed_per_cycle::5       377938      1.80%     94.56% # Number of insts commited each cycle
system.switch_cpus.commit.committed_per_cycle::6       243318      1.16%     95.72% # Number of insts commited each cycle
system.switch_cpus.commit.committed_per_cycle::7        93351      0.44%     96.16% # Number of insts commited each cycle
system.switch_cpus.commit.committed_per_cycle::8       807518      3.84%    100.00% # Number of insts commited each cycle
system.switch_cpus.commit.committed_per_cycle::overflows            0      0.00%    100.00% # Number of insts commited each cycle
system.switch_cpus.commit.committed_per_cycle::min_value            0                       # Number of insts commited each cycle
system.switch_cpus.commit.committed_per_cycle::max_value            8                       # Number of insts commited each cycle
system.switch_cpus.commit.committed_per_cycle::total     21049395                       # Number of insts commited each cycle
system.switch_cpus.commit.fp_insts             172349                       # Number of committed floating point instructions.
system.switch_cpus.commit.function_calls       100339                       # Number of function calls committed.
system.switch_cpus.commit.int_insts          18957187                       # Number of committed integer instructions.
system.switch_cpus.commit.loads               1965775                       # Number of loads committed
system.switch_cpus.commit.membars                   0                       # Number of memory barriers committed
system.switch_cpus.commit.op_class_0::No_OpClass        54154      0.28%      0.28% # Class of committed instruction
system.switch_cpus.commit.op_class_0::IntAlu     15461247     80.76%     81.04% # Class of committed instruction
system.switch_cpus.commit.op_class_0::IntMult        55088      0.29%     81.33% # Class of committed instruction
system.switch_cpus.commit.op_class_0::IntDiv         1751      0.01%     81.34% # Class of committed instruction
system.switch_cpus.commit.op_class_0::FloatAdd        11085      0.06%     81.39% # Class of committed instruction
system.switch_cpus.commit.op_class_0::FloatCmp            0      0.00%     81.39% # Class of committed instruction
system.switch_cpus.commit.op_class_0::FloatCvt          128      0.00%     81.39% # Class of committed instruction
system.switch_cpus.commit.op_class_0::FloatMult            0      0.00%     81.39% # Class of committed instruction
system.switch_cpus.commit.op_class_0::FloatMultAcc            0      0.00%     81.39% # Class of committed instruction
system.switch_cpus.commit.op_class_0::FloatDiv            0      0.00%     81.39% # Class of committed instruction
system.switch_cpus.commit.op_class_0::FloatMisc            0      0.00%     81.39% # Class of committed instruction
system.switch_cpus.commit.op_class_0::FloatSqrt            0      0.00%     81.39% # Class of committed instruction
system.switch_cpus.commit.op_class_0::SimdAdd            0      0.00%     81.39% # Class of committed instruction
system.switch_cpus.commit.op_class_0::SimdAddAcc            0      0.00%     81.39% # Class of committed instruction
system.switch_cpus.commit.op_class_0::SimdAlu           42      0.00%     81.39% # Class of committed instruction
system.switch_cpus.commit.op_class_0::SimdCmp            0      0.00%     81.39% # Class of committed instruction
system.switch_cpus.commit.op_class_0::SimdCvt        24138      0.13%     81.52% # Class of committed instruction
system.switch_cpus.commit.op_class_0::SimdMisc       101285      0.53%     82.05% # Class of committed instruction
system.switch_cpus.commit.op_class_0::SimdMult            0      0.00%     82.05% # Class of committed instruction
system.switch_cpus.commit.op_class_0::SimdMultAcc            0      0.00%     82.05% # Class of committed instruction
system.switch_cpus.commit.op_class_0::SimdShift            0      0.00%     82.05% # Class of committed instruction
system.switch_cpus.commit.op_class_0::SimdShiftAcc            0      0.00%     82.05% # Class of committed instruction
system.switch_cpus.commit.op_class_0::SimdDiv            0      0.00%     82.05% # Class of committed instruction
system.switch_cpus.commit.op_class_0::SimdSqrt            0      0.00%     82.05% # Class of committed instruction
system.switch_cpus.commit.op_class_0::SimdFloatAdd            0      0.00%     82.05% # Class of committed instruction
system.switch_cpus.commit.op_class_0::SimdFloatAlu            0      0.00%     82.05% # Class of committed instruction
system.switch_cpus.commit.op_class_0::SimdFloatCmp            0      0.00%     82.05% # Class of committed instruction
system.switch_cpus.commit.op_class_0::SimdFloatCvt            0      0.00%     82.05% # Class of committed instruction
system.switch_cpus.commit.op_class_0::SimdFloatDiv            0      0.00%     82.05% # Class of committed instruction
system.switch_cpus.commit.op_class_0::SimdFloatMisc            0      0.00%     82.05% # Class of committed instruction
system.switch_cpus.commit.op_class_0::SimdFloatMult            0      0.00%     82.05% # Class of committed instruction
system.switch_cpus.commit.op_class_0::SimdFloatMultAcc            0      0.00%     82.05% # Class of committed instruction
system.switch_cpus.commit.op_class_0::SimdFloatSqrt            0      0.00%     82.05% # Class of committed instruction
system.switch_cpus.commit.op_class_0::SimdReduceAdd            0      0.00%     82.05% # Class of committed instruction
system.switch_cpus.commit.op_class_0::SimdReduceAlu            0      0.00%     82.05% # Class of committed instruction
system.switch_cpus.commit.op_class_0::SimdReduceCmp            0      0.00%     82.05% # Class of committed instruction
system.switch_cpus.commit.op_class_0::SimdFloatReduceAdd            0      0.00%     82.05% # Class of committed instruction
system.switch_cpus.commit.op_class_0::SimdFloatReduceCmp            0      0.00%     82.05% # Class of committed instruction
system.switch_cpus.commit.op_class_0::SimdAes            0      0.00%     82.05% # Class of committed instruction
system.switch_cpus.commit.op_class_0::SimdAesMix            0      0.00%     82.05% # Class of committed instruction
system.switch_cpus.commit.op_class_0::SimdSha1Hash            0      0.00%     82.05% # Class of committed instruction
system.switch_cpus.commit.op_class_0::SimdSha1Hash2            0      0.00%     82.05% # Class of committed instruction
system.switch_cpus.commit.op_class_0::SimdSha256Hash            0      0.00%     82.05% # Class of committed instruction
system.switch_cpus.commit.op_class_0::SimdSha256Hash2            0      0.00%     82.05% # Class of committed instruction
system.switch_cpus.commit.op_class_0::SimdShaSigma2            0      0.00%     82.05% # Class of committed instruction
system.switch_cpus.commit.op_class_0::SimdShaSigma3            0      0.00%     82.05% # Class of committed instruction
system.switch_cpus.commit.op_class_0::SimdPredAlu            0      0.00%     82.05% # Class of committed instruction
system.switch_cpus.commit.op_class_0::MemRead      1941393     10.14%     92.19% # Class of committed instruction
system.switch_cpus.commit.op_class_0::MemWrite      1470846      7.68%     99.87% # Class of committed instruction
system.switch_cpus.commit.op_class_0::FloatMemRead        24382      0.13%    100.00% # Class of committed instruction
system.switch_cpus.commit.op_class_0::FloatMemWrite          256      0.00%    100.00% # Class of committed instruction
system.switch_cpus.commit.op_class_0::IprAccess            0      0.00%    100.00% # Class of committed instruction
system.switch_cpus.commit.op_class_0::InstPrefetch            0      0.00%    100.00% # Class of committed instruction
system.switch_cpus.commit.op_class_0::total     19145795                       # Class of committed instruction
system.switch_cpus.commit.refs                3436877                       # Number of memory references committed
system.switch_cpus.commit.swp_count                 0                       # Number of s/w prefetches committed
system.switch_cpus.commit.vec_insts                 0                       # Number of committed Vector instructions.
system.switch_cpus.committedInsts            10000001                       # Number of Instructions Simulated
system.switch_cpus.committedOps              19145795                       # Number of Ops (including micro ops) Simulated
system.switch_cpus.cpi                       2.809613                       # CPI: Cycles Per Instruction
system.switch_cpus.cpi_total                 2.809613                       # CPI: Total CPI of All Threads
system.switch_cpus.decode.BlockedCycles       3231591                       # Number of cycles decode is blocked
system.switch_cpus.decode.DecodedInsts       21070551                       # Number of instructions handled by decode
system.switch_cpus.decode.IdleCycles         14583440                       # Number of cycles decode is idle
system.switch_cpus.decode.RunCycles           3336450                       # Number of cycles decode is running
system.switch_cpus.decode.SquashCycles          69501                       # Number of cycles decode is squashing
system.switch_cpus.decode.UnblockCycles         81937                       # Number of cycles decode is unblocking
system.switch_cpus.dtb.rdAccesses             2082205                       # TLB accesses on read requests
system.switch_cpus.dtb.rdMisses                  1968                       # TLB misses on read requests
system.switch_cpus.dtb.wrAccesses             1511826                       # TLB accesses on write requests
system.switch_cpus.dtb.wrMisses                  3163                       # TLB misses on write requests
system.switch_cpus.fetch.Branches             2570869                       # Number of branches that fetch encountered
system.switch_cpus.fetch.CacheLines           1652970                       # Number of cache lines fetched
system.switch_cpus.fetch.Cycles               5928612                       # Number of cycles fetch has run and was not squashing or blocked
system.switch_cpus.fetch.IcacheSquashes         51344                       # Number of outstanding Icache misses that were squashed
system.switch_cpus.fetch.IcacheWaitRetryStallCycles           49                       # Number of stall cycles due to full MSHR
system.switch_cpus.fetch.Insts               11134248                       # Number of instructions fetch has processed
system.switch_cpus.fetch.MiscStallCycles          800                       # Number of cycles fetch has spent waiting on interrupts, or bad addresses, or out of MSHRs
system.switch_cpus.fetch.PendingQuiesceStallCycles            7                       # Number of stall cycles due to pending quiesce instructions
system.switch_cpus.fetch.PendingTrapStallCycles         4940                       # Number of stall cycles due to pending traps
system.switch_cpus.fetch.SquashCycles          139002                       # Number of cycles fetch has spent squashing
system.switch_cpus.fetch.branchRate          0.091503                       # Number of branch fetches per cycle
system.switch_cpus.fetch.icacheStallCycles     15299012                       # Number of cycles fetch is stalled on an Icache miss
system.switch_cpus.fetch.predictedBranches       931730                       # Number of branches that fetch has predicted taken
system.switch_cpus.fetch.rate                0.396291                       # Number of inst fetches per cycle
system.switch_cpus.fetch.rateDist::samples     21302921                       # Number of instructions fetched each cycle (Total)
system.switch_cpus.fetch.rateDist::mean      1.004611                       # Number of instructions fetched each cycle (Total)
system.switch_cpus.fetch.rateDist::stdev     2.485642                       # Number of instructions fetched each cycle (Total)
system.switch_cpus.fetch.rateDist::underflows            0      0.00%      0.00% # Number of instructions fetched each cycle (Total)
system.switch_cpus.fetch.rateDist::0         17773039     83.43%     83.43% # Number of instructions fetched each cycle (Total)
system.switch_cpus.fetch.rateDist::1           308248      1.45%     84.88% # Number of instructions fetched each cycle (Total)
system.switch_cpus.fetch.rateDist::2           296042      1.39%     86.27% # Number of instructions fetched each cycle (Total)
system.switch_cpus.fetch.rateDist::3           207254      0.97%     87.24% # Number of instructions fetched each cycle (Total)
system.switch_cpus.fetch.rateDist::4           159003      0.75%     87.99% # Number of instructions fetched each cycle (Total)
system.switch_cpus.fetch.rateDist::5           253368      1.19%     89.18% # Number of instructions fetched each cycle (Total)
system.switch_cpus.fetch.rateDist::6           186697      0.88%     90.05% # Number of instructions fetched each cycle (Total)
system.switch_cpus.fetch.rateDist::7            98144      0.46%     90.51% # Number of instructions fetched each cycle (Total)
system.switch_cpus.fetch.rateDist::8          2021126      9.49%    100.00% # Number of instructions fetched each cycle (Total)
system.switch_cpus.fetch.rateDist::overflows            0      0.00%    100.00% # Number of instructions fetched each cycle (Total)
system.switch_cpus.fetch.rateDist::min_value            0                       # Number of instructions fetched each cycle (Total)
system.switch_cpus.fetch.rateDist::max_value            8                       # Number of instructions fetched each cycle (Total)
system.switch_cpus.fetch.rateDist::total     21302921                       # Number of instructions fetched each cycle (Total)
system.switch_cpus.fp_regfile_reads            284131                       # number of floating regfile reads
system.switch_cpus.fp_regfile_writes           159140                       # number of floating regfile writes
system.switch_cpus.idleCycles                 6793213                       # Total number of cycles that the CPU has spent unscheduled due to idling
system.switch_cpus.iew.branchMispredicts        90223                       # Number of branch mispredicts detected at execute
system.switch_cpus.iew.exec_branches          2398691                       # Number of branches executed
system.switch_cpus.iew.exec_nop                     0                       # number of nop insts executed
system.switch_cpus.iew.exec_rate             0.713669                       # Inst execution rate
system.switch_cpus.iew.exec_refs              3617150                       # number of memory reference insts executed
system.switch_cpus.iew.exec_stores            1511822                       # Number of stores executed
system.switch_cpus.iew.exec_swp                     0                       # number of swp insts executed
system.switch_cpus.iew.iewBlockCycles          427444                       # Number of cycles IEW is blocking
system.switch_cpus.iew.iewDispLoadInsts       2189009                       # Number of dispatched load instructions
system.switch_cpus.iew.iewDispNonSpecInsts         1322                       # Number of dispatched non-speculative instructions
system.switch_cpus.iew.iewDispSquashedInsts        10109                       # Number of squashed instructions skipped by dispatch
system.switch_cpus.iew.iewDispStoreInsts      1547304                       # Number of dispatched store instructions
system.switch_cpus.iew.iewDispatchedInsts     20625586                       # Number of instructions dispatched to IQ
system.switch_cpus.iew.iewExecLoadInsts       2105328                       # Number of load instructions executed
system.switch_cpus.iew.iewExecSquashedInsts        81016                       # Number of squashed instructions skipped in execute
system.switch_cpus.iew.iewExecutedInsts      20051343                       # Number of executed instructions
system.switch_cpus.iew.iewIQFullEvents           4948                       # Number of times the IQ has become full, causing a stall
system.switch_cpus.iew.iewIdleCycles                0                       # Number of cycles IEW is idle
system.switch_cpus.iew.iewLSQFullEvents        933419                       # Number of times the LSQ has become full, causing a stall
system.switch_cpus.iew.iewSquashCycles          69501                       # Number of cycles IEW is squashing
system.switch_cpus.iew.iewUnblockCycles        939786                       # Number of cycles IEW is unblocking
system.switch_cpus.iew.lsq.thread0.blockedLoads            0                       # Number of blocked loads due to partial load-store forwarding
system.switch_cpus.iew.lsq.thread0.cacheBlocked         6942                       # Number of times an access to memory failed due to the cache being blocked
system.switch_cpus.iew.lsq.thread0.forwLoads       161579                       # Number of loads that had data forwarded from stores
system.switch_cpus.iew.lsq.thread0.ignoredResponses           96                       # Number of memory responses ignored because the instruction is squashed
system.switch_cpus.iew.lsq.thread0.invAddrLoads            0                       # Number of loads ignored due to an invalid address
system.switch_cpus.iew.lsq.thread0.invAddrSwpfs            0                       # Number of software prefetches ignored due to an invalid address
system.switch_cpus.iew.lsq.thread0.memOrderViolation          198                       # Number of memory ordering violations
system.switch_cpus.iew.lsq.thread0.rescheduledLoads           10                       # Number of loads that were rescheduled
system.switch_cpus.iew.lsq.thread0.squashedLoads       223233                       # Number of loads squashed
system.switch_cpus.iew.lsq.thread0.squashedStores        76202                       # Number of stores squashed
system.switch_cpus.iew.memOrderViolationEvents          198                       # Number of memory order violations
system.switch_cpus.iew.predictedNotTakenIncorrect        87979                       # Number of branches that were predicted not taken incorrectly
system.switch_cpus.iew.predictedTakenIncorrect         2244                       # Number of branches that were predicted taken incorrectly
system.switch_cpus.iew.wb_consumers          21246714                       # num instructions consuming a value
system.switch_cpus.iew.wb_count              19969557                       # cumulative count of insts written-back
system.switch_cpus.iew.wb_fanout             0.654446                       # average fanout of values written-back
system.switch_cpus.iew.wb_producers          13904820                       # num instructions producing a value
system.switch_cpus.iew.wb_rate               0.710758                       # insts written-back per cycle
system.switch_cpus.iew.wb_sent               19988834                       # cumulative count of insts sent to commit
system.switch_cpus.int_regfile_reads         29558070                       # number of integer regfile reads
system.switch_cpus.int_regfile_writes        15880616                       # number of integer regfile writes
system.switch_cpus.ipc                       0.355921                       # IPC: Instructions Per Cycle
system.switch_cpus.ipc_total                 0.355921                       # IPC: Total IPC of All Threads
system.switch_cpus.iq.FU_type_0::No_OpClass        89198      0.44%      0.44% # Type of FU issued
system.switch_cpus.iq.FU_type_0::IntAlu      16197214     80.45%     80.90% # Type of FU issued
system.switch_cpus.iq.FU_type_0::IntMult        55163      0.27%     81.17% # Type of FU issued
system.switch_cpus.iq.FU_type_0::IntDiv          1876      0.01%     81.18% # Type of FU issued
system.switch_cpus.iq.FU_type_0::FloatAdd        11204      0.06%     81.24% # Type of FU issued
system.switch_cpus.iq.FU_type_0::FloatCmp            0      0.00%     81.24% # Type of FU issued
system.switch_cpus.iq.FU_type_0::FloatCvt          142      0.00%     81.24% # Type of FU issued
system.switch_cpus.iq.FU_type_0::FloatMult            0      0.00%     81.24% # Type of FU issued
system.switch_cpus.iq.FU_type_0::FloatMultAcc            0      0.00%     81.24% # Type of FU issued
system.switch_cpus.iq.FU_type_0::FloatDiv            0      0.00%     81.24% # Type of FU issued
system.switch_cpus.iq.FU_type_0::FloatMisc            0      0.00%     81.24% # Type of FU issued
system.switch_cpus.iq.FU_type_0::FloatSqrt            0      0.00%     81.24% # Type of FU issued
system.switch_cpus.iq.FU_type_0::SimdAdd            0      0.00%     81.24% # Type of FU issued
system.switch_cpus.iq.FU_type_0::SimdAddAcc            0      0.00%     81.24% # Type of FU issued
system.switch_cpus.iq.FU_type_0::SimdAlu           52      0.00%     81.24% # Type of FU issued
system.switch_cpus.iq.FU_type_0::SimdCmp            0      0.00%     81.24% # Type of FU issued
system.switch_cpus.iq.FU_type_0::SimdCvt        29240      0.15%     81.38% # Type of FU issued
system.switch_cpus.iq.FU_type_0::SimdMisc       106993      0.53%     81.91% # Type of FU issued
system.switch_cpus.iq.FU_type_0::SimdMult            0      0.00%     81.91% # Type of FU issued
system.switch_cpus.iq.FU_type_0::SimdMultAcc            0      0.00%     81.91% # Type of FU issued
system.switch_cpus.iq.FU_type_0::SimdShift            0      0.00%     81.91% # Type of FU issued
system.switch_cpus.iq.FU_type_0::SimdShiftAcc            0      0.00%     81.91% # Type of FU issued
system.switch_cpus.iq.FU_type_0::SimdDiv            0      0.00%     81.91% # Type of FU issued
system.switch_cpus.iq.FU_type_0::SimdSqrt            0      0.00%     81.91% # Type of FU issued
system.switch_cpus.iq.FU_type_0::SimdFloatAdd            0      0.00%     81.91% # Type of FU issued
system.switch_cpus.iq.FU_type_0::SimdFloatAlu            0      0.00%     81.91% # Type of FU issued
system.switch_cpus.iq.FU_type_0::SimdFloatCmp            0      0.00%     81.91% # Type of FU issued
system.switch_cpus.iq.FU_type_0::SimdFloatCvt            0      0.00%     81.91% # Type of FU issued
system.switch_cpus.iq.FU_type_0::SimdFloatDiv            0      0.00%     81.91% # Type of FU issued
system.switch_cpus.iq.FU_type_0::SimdFloatMisc            0      0.00%     81.91% # Type of FU issued
system.switch_cpus.iq.FU_type_0::SimdFloatMult            0      0.00%     81.91% # Type of FU issued
system.switch_cpus.iq.FU_type_0::SimdFloatMultAcc            0      0.00%     81.91% # Type of FU issued
system.switch_cpus.iq.FU_type_0::SimdFloatSqrt            0      0.00%     81.91% # Type of FU issued
system.switch_cpus.iq.FU_type_0::SimdReduceAdd            0      0.00%     81.91% # Type of FU issued
system.switch_cpus.iq.FU_type_0::SimdReduceAlu            0      0.00%     81.91% # Type of FU issued
system.switch_cpus.iq.FU_type_0::SimdReduceCmp            0      0.00%     81.91% # Type of FU issued
system.switch_cpus.iq.FU_type_0::SimdFloatReduceAdd            0      0.00%     81.91% # Type of FU issued
system.switch_cpus.iq.FU_type_0::SimdFloatReduceCmp            0      0.00%     81.91% # Type of FU issued
system.switch_cpus.iq.FU_type_0::SimdAes            0      0.00%     81.91% # Type of FU issued
system.switch_cpus.iq.FU_type_0::SimdAesMix            0      0.00%     81.91% # Type of FU issued
system.switch_cpus.iq.FU_type_0::SimdSha1Hash            0      0.00%     81.91% # Type of FU issued
system.switch_cpus.iq.FU_type_0::SimdSha1Hash2            0      0.00%     81.91% # Type of FU issued
system.switch_cpus.iq.FU_type_0::SimdSha256Hash            0      0.00%     81.91% # Type of FU issued
system.switch_cpus.iq.FU_type_0::SimdSha256Hash2            0      0.00%     81.91% # Type of FU issued
system.switch_cpus.iq.FU_type_0::SimdShaSigma2            0      0.00%     81.91% # Type of FU issued
system.switch_cpus.iq.FU_type_0::SimdShaSigma3            0      0.00%     81.91% # Type of FU issued
system.switch_cpus.iq.FU_type_0::SimdPredAlu            0      0.00%     81.91% # Type of FU issued
system.switch_cpus.iq.FU_type_0::MemRead      2087816     10.37%     92.28% # Type of FU issued
system.switch_cpus.iq.FU_type_0::MemWrite      1518081      7.54%     99.82% # Type of FU issued
system.switch_cpus.iq.FU_type_0::FloatMemRead        34950      0.17%    100.00% # Type of FU issued
system.switch_cpus.iq.FU_type_0::FloatMemWrite          430      0.00%    100.00% # Type of FU issued
system.switch_cpus.iq.FU_type_0::IprAccess            0      0.00%    100.00% # Type of FU issued
system.switch_cpus.iq.FU_type_0::InstPrefetch            0      0.00%    100.00% # Type of FU issued
system.switch_cpus.iq.FU_type_0::total       20132359                       # Type of FU issued
system.switch_cpus.iq.fp_alu_accesses          195592                       # Number of floating point alu accesses
system.switch_cpus.iq.fp_inst_queue_reads       389730                       # Number of floating instruction queue reads
system.switch_cpus.iq.fp_inst_queue_wakeup_accesses       188484                       # Number of floating instruction queue wakeup accesses
system.switch_cpus.iq.fp_inst_queue_writes       237689                       # Number of floating instruction queue writes
system.switch_cpus.iq.fu_busy_cnt              313691                       # FU busy when requested
system.switch_cpus.iq.fu_busy_rate           0.015581                       # FU busy rate (busy events/executed inst)
system.switch_cpus.iq.fu_full::No_OpClass            0      0.00%      0.00% # attempts to use FU when none available
system.switch_cpus.iq.fu_full::IntAlu          293560     93.58%     93.58% # attempts to use FU when none available
system.switch_cpus.iq.fu_full::IntMult              0      0.00%     93.58% # attempts to use FU when none available
system.switch_cpus.iq.fu_full::IntDiv               0      0.00%     93.58% # attempts to use FU when none available
system.switch_cpus.iq.fu_full::FloatAdd             0      0.00%     93.58% # attempts to use FU when none available
system.switch_cpus.iq.fu_full::FloatCmp             0      0.00%     93.58% # attempts to use FU when none available
system.switch_cpus.iq.fu_full::FloatCvt             0      0.00%     93.58% # attempts to use FU when none available
system.switch_cpus.iq.fu_full::FloatMult            0      0.00%     93.58% # attempts to use FU when none available
system.switch_cpus.iq.fu_full::FloatMultAcc            0      0.00%     93.58% # attempts to use FU when none available
system.switch_cpus.iq.fu_full::FloatDiv             0      0.00%     93.58% # attempts to use FU when none available
system.switch_cpus.iq.fu_full::FloatMisc            0      0.00%     93.58% # attempts to use FU when none available
system.switch_cpus.iq.fu_full::FloatSqrt            0      0.00%     93.58% # attempts to use FU when none available
system.switch_cpus.iq.fu_full::SimdAdd              0      0.00%     93.58% # attempts to use FU when none available
system.switch_cpus.iq.fu_full::SimdAddAcc            0      0.00%     93.58% # attempts to use FU when none available
system.switch_cpus.iq.fu_full::SimdAlu              4      0.00%     93.58% # attempts to use FU when none available
system.switch_cpus.iq.fu_full::SimdCmp              0      0.00%     93.58% # attempts to use FU when none available
system.switch_cpus.iq.fu_full::SimdCvt           1375      0.44%     94.02% # attempts to use FU when none available
system.switch_cpus.iq.fu_full::SimdMisc             0      0.00%     94.02% # attempts to use FU when none available
system.switch_cpus.iq.fu_full::SimdMult             0      0.00%     94.02% # attempts to use FU when none available
system.switch_cpus.iq.fu_full::SimdMultAcc            0      0.00%     94.02% # attempts to use FU when none available
system.switch_cpus.iq.fu_full::SimdShift            0      0.00%     94.02% # attempts to use FU when none available
system.switch_cpus.iq.fu_full::SimdShiftAcc            0      0.00%     94.02% # attempts to use FU when none available
system.switch_cpus.iq.fu_full::SimdDiv              0      0.00%     94.02% # attempts to use FU when none available
system.switch_cpus.iq.fu_full::SimdSqrt             0      0.00%     94.02% # attempts to use FU when none available
system.switch_cpus.iq.fu_full::SimdFloatAdd            0      0.00%     94.02% # attempts to use FU when none available
system.switch_cpus.iq.fu_full::SimdFloatAlu            0      0.00%     94.02% # attempts to use FU when none available
system.switch_cpus.iq.fu_full::SimdFloatCmp            0      0.00%     94.02% # attempts to use FU when none available
system.switch_cpus.iq.fu_full::SimdFloatCvt            0      0.00%     94.02% # attempts to use FU when none available
system.switch_cpus.iq.fu_full::SimdFloatDiv            0      0.00%     94.02% # attempts to use FU when none available
system.switch_cpus.iq.fu_full::SimdFloatMisc            0      0.00%     94.02% # attempts to use FU when none available
system.switch_cpus.iq.fu_full::SimdFloatMult            0      0.00%     94.02% # attempts to use FU when none available
system.switch_cpus.iq.fu_full::SimdFloatMultAcc            0      0.00%     94.02% # attempts to use FU when none available
system.switch_cpus.iq.fu_full::SimdFloatSqrt            0      0.00%     94.02% # attempts to use FU when none available
system.switch_cpus.iq.fu_full::SimdReduceAdd            0      0.00%     94.02% # attempts to use FU when none available
system.switch_cpus.iq.fu_full::SimdReduceAlu            0      0.00%     94.02% # attempts to use FU when none available
system.switch_cpus.iq.fu_full::SimdReduceCmp            0      0.00%     94.02% # attempts to use FU when none available
system.switch_cpus.iq.fu_full::SimdFloatReduceAdd            0      0.00%     94.02% # attempts to use FU when none available
system.switch_cpus.iq.fu_full::SimdFloatReduceCmp            0      0.00%     94.02% # attempts to use FU when none available
system.switch_cpus.iq.fu_full::SimdAes              0      0.00%     94.02% # attempts to use FU when none available
system.switch_cpus.iq.fu_full::SimdAesMix            0      0.00%     94.02% # attempts to use FU when none available
system.switch_cpus.iq.fu_full::SimdSha1Hash            0      0.00%     94.02% # attempts to use FU when none available
system.switch_cpus.iq.fu_full::SimdSha1Hash2            0      0.00%     94.02% # attempts to use FU when none available
system.switch_cpus.iq.fu_full::SimdSha256Hash            0      0.00%     94.02% # attempts to use FU when none available
system.switch_cpus.iq.fu_full::SimdSha256Hash2            0      0.00%     94.02% # attempts to use FU when none available
system.switch_cpus.iq.fu_full::SimdShaSigma2            0      0.00%     94.02% # attempts to use FU when none available
system.switch_cpus.iq.fu_full::SimdShaSigma3            0      0.00%     94.02% # attempts to use FU when none available
system.switch_cpus.iq.fu_full::SimdPredAlu            0      0.00%     94.02% # attempts to use FU when none available
system.switch_cpus.iq.fu_full::MemRead          11920      3.80%     97.82% # attempts to use FU when none available
system.switch_cpus.iq.fu_full::MemWrite          6743      2.15%     99.97% # attempts to use FU when none available
system.switch_cpus.iq.fu_full::FloatMemRead           33      0.01%     99.98% # attempts to use FU when none available
system.switch_cpus.iq.fu_full::FloatMemWrite           56      0.02%    100.00% # attempts to use FU when none available
system.switch_cpus.iq.fu_full::IprAccess            0      0.00%    100.00% # attempts to use FU when none available
system.switch_cpus.iq.fu_full::InstPrefetch            0      0.00%    100.00% # attempts to use FU when none available
system.switch_cpus.iq.int_alu_accesses       20161260                       # Number of integer alu accesses
system.switch_cpus.iq.int_inst_queue_reads     61501155                       # Number of integer instruction queue reads
system.switch_cpus.iq.int_inst_queue_wakeup_accesses     19781073                       # Number of integer instruction queue wakeup accesses
system.switch_cpus.iq.int_inst_queue_writes     21867842                       # Number of integer instruction queue writes
system.switch_cpus.iq.iqInstsAdded           20622532                       # Number of instructions added to the IQ (excludes non-spec)
system.switch_cpus.iq.iqInstsIssued          20132359                       # Number of instructions issued
system.switch_cpus.iq.iqNonSpecInstsAdded         3054                       # Number of non-speculative instructions added to the IQ
system.switch_cpus.iq.iqSquashedInstsExamined      1479775                       # Number of squashed instructions iterated over during squash; mainly for profiling
system.switch_cpus.iq.iqSquashedInstsIssued         9555                       # Number of squashed instructions issued
system.switch_cpus.iq.iqSquashedNonSpecRemoved         2928                       # Number of squashed non-spec instructions that were removed
system.switch_cpus.iq.iqSquashedOperandsExamined      2019364                       # Number of squashed operands that are examined and possibly removed from graph
system.switch_cpus.iq.issued_per_cycle::samples     21302921                       # Number of insts issued each cycle
system.switch_cpus.iq.issued_per_cycle::mean     0.945052                       # Number of insts issued each cycle
system.switch_cpus.iq.issued_per_cycle::stdev     1.817569                       # Number of insts issued each cycle
system.switch_cpus.iq.issued_per_cycle::underflows            0      0.00%      0.00% # Number of insts issued each cycle
system.switch_cpus.iq.issued_per_cycle::0     15074616     70.76%     70.76% # Number of insts issued each cycle
system.switch_cpus.iq.issued_per_cycle::1      1533619      7.20%     77.96% # Number of insts issued each cycle
system.switch_cpus.iq.issued_per_cycle::2      1308267      6.14%     84.10% # Number of insts issued each cycle
system.switch_cpus.iq.issued_per_cycle::3       893337      4.19%     88.30% # Number of insts issued each cycle
system.switch_cpus.iq.issued_per_cycle::4       835445      3.92%     92.22% # Number of insts issued each cycle
system.switch_cpus.iq.issued_per_cycle::5       579504      2.72%     94.94% # Number of insts issued each cycle
system.switch_cpus.iq.issued_per_cycle::6       586070      2.75%     97.69% # Number of insts issued each cycle
system.switch_cpus.iq.issued_per_cycle::7       390029      1.83%     99.52% # Number of insts issued each cycle
system.switch_cpus.iq.issued_per_cycle::8       102034      0.48%    100.00% # Number of insts issued each cycle
system.switch_cpus.iq.issued_per_cycle::overflows            0      0.00%    100.00% # Number of insts issued each cycle
system.switch_cpus.iq.issued_per_cycle::min_value            0                       # Number of insts issued each cycle
system.switch_cpus.iq.issued_per_cycle::max_value            8                       # Number of insts issued each cycle
system.switch_cpus.iq.issued_per_cycle::total     21302921                       # Number of insts issued each cycle
system.switch_cpus.iq.rate                   0.716553                       # Inst issue rate
system.switch_cpus.iq.vec_alu_accesses              0                       # Number of vector alu accesses
system.switch_cpus.iq.vec_inst_queue_reads            0                       # Number of vector instruction queue reads
system.switch_cpus.iq.vec_inst_queue_wakeup_accesses            0                       # Number of vector instruction queue wakeup accesses
system.switch_cpus.iq.vec_inst_queue_writes            0                       # Number of vector instruction queue writes
system.switch_cpus.itb.rdAccesses                   0                       # TLB accesses on read requests
system.switch_cpus.itb.rdMisses                     0                       # TLB misses on read requests
system.switch_cpus.itb.wrAccesses             1653766                       # TLB accesses on write requests
system.switch_cpus.itb.wrMisses                   928                       # TLB misses on write requests
system.switch_cpus.memDep0.conflictingLoads        49077                       # Number of conflicting loads.
system.switch_cpus.memDep0.conflictingStores        14431                       # Number of conflicting stores.
system.switch_cpus.memDep0.insertedLoads      2189009                       # Number of loads inserted to the mem dependence unit.
system.switch_cpus.memDep0.insertedStores      1547304                       # Number of stores inserted to the mem dependence unit.
system.switch_cpus.misc_regfile_reads         8459889                       # number of misc regfile reads
system.switch_cpus.misc_regfile_writes             73                       # number of misc regfile writes
system.switch_cpus.numCycles                 28096134                       # number of cpu cycles simulated
system.switch_cpus.numWorkItemsCompleted            0                       # number of work items this cpu completed
system.switch_cpus.numWorkItemsStarted              0                       # number of work items this cpu started
system.switch_cpus.rename.BlockCycles         1484065                       # Number of cycles rename is blocking
system.switch_cpus.rename.CommittedMaps      21462266                       # Number of HB maps that are committed
system.switch_cpus.rename.IQFullEvents          64543                       # Number of times rename has blocked due to IQ full
system.switch_cpus.rename.IdleCycles         14640242                       # Number of cycles rename is idle
system.switch_cpus.rename.LQFullEvents          13747                       # Number of times rename has blocked due to LQ full
system.switch_cpus.rename.ROBFullEvents          6910                       # Number of times rename has blocked due to ROB full
system.switch_cpus.rename.RenameLookups      53184427                       # Number of register rename lookups that rename has made
system.switch_cpus.rename.RenamedInsts       20921309                       # Number of instructions processed by rename
system.switch_cpus.rename.RenamedOperands     23411497                       # Number of destination operands rename has renamed
system.switch_cpus.rename.RunCycles           3352652                       # Number of cycles rename is running
system.switch_cpus.rename.SQFullEvents        1676679                       # Number of times rename has blocked due to SQ full
system.switch_cpus.rename.SquashCycles          69501                       # Number of cycles rename is squashing
system.switch_cpus.rename.UnblockCycles       1750331                       # Number of cycles rename is unblocking
system.switch_cpus.rename.UndoneMaps          1949202                       # Number of HB maps that are undone due to squashing
system.switch_cpus.rename.fp_rename_lookups       306516                       # Number of floating rename lookups
system.switch_cpus.rename.int_rename_lookups     31117303                       # Number of integer rename lookups
system.switch_cpus.rename.serializeStallCycles         6129                       # count of cycles rename stalled for serializing inst
system.switch_cpus.rename.serializingInsts          194                       # count of serializing insts renamed
system.switch_cpus.rename.skidInsts            475903                       # count of insts added to the skid buffer
system.switch_cpus.rename.tempSerializingInsts          155                       # count of temporary serializing insts renamed
system.switch_cpus.rob.rob_reads             40851547                       # The number of ROB reads
system.switch_cpus.rob.rob_writes            41496400                       # The number of ROB writes
system.switch_cpus.timesIdled                  326166                       # Number of times that the entire CPU went into an idle state and unscheduled itself
system.tol2bus.snoop_filter.hit_multi_requests            8                       # Number of requests hitting in the snoop filter with multiple (>1) holders of the requested data.
system.tol2bus.snoop_filter.hit_multi_snoops            3                       # Number of snoops hitting in the snoop filter with multiple (>1) holders of the requested data.
system.tol2bus.snoop_filter.hit_single_requests       724627                       # Number of requests hitting in the snoop filter with a single holder of the requested data.
system.tol2bus.snoop_filter.hit_single_snoops        91804                       # Number of snoops hitting in the snoop filter with a single holder of the requested data.
system.tol2bus.snoop_filter.tot_requests      1449385                       # Total number of requests made to the snoop filter.
system.tol2bus.snoop_filter.tot_snoops          91807                       # Total number of snoops made to the snoop filter.
system.membus.trans_dist::ReadResp              68650                       # Transaction distribution
system.membus.trans_dist::WritebackDirty        36015                       # Transaction distribution
system.membus.trans_dist::CleanEvict            61631                       # Transaction distribution
system.membus.trans_dist::ReadExReq             29310                       # Transaction distribution
system.membus.trans_dist::ReadExResp            29310                       # Transaction distribution
system.membus.trans_dist::ReadSharedReq         68650                       # Transaction distribution
system.membus.pkt_count_system.l2.mem_side::system.mem_ctrls.port       293566                       # Packet count per connected master and slave (bytes)
system.membus.pkt_count_system.l2.mem_side::total       293566                       # Packet count per connected master and slave (bytes)
system.membus.pkt_count::total                 293566                       # Packet count per connected master and slave (bytes)
system.membus.pkt_size_system.l2.mem_side::system.mem_ctrls.port      8574400                       # Cumulative packet size per connected master and slave (bytes)
system.membus.pkt_size_system.l2.mem_side::total      8574400                       # Cumulative packet size per connected master and slave (bytes)
system.membus.pkt_size::total                 8574400                       # Cumulative packet size per connected master and slave (bytes)
system.membus.snoops                                0                       # Total snoops (count)
system.membus.snoopTraffic                          0                       # Total snoop traffic (bytes)
system.membus.snoop_fanout::samples             97960                       # Request fanout histogram
system.membus.snoop_fanout::mean                    0                       # Request fanout histogram
system.membus.snoop_fanout::stdev                   0                       # Request fanout histogram
system.membus.snoop_fanout::underflows              0      0.00%      0.00% # Request fanout histogram
system.membus.snoop_fanout::0                   97960    100.00%    100.00% # Request fanout histogram
system.membus.snoop_fanout::1                       0      0.00%    100.00% # Request fanout histogram
system.membus.snoop_fanout::overflows               0      0.00%    100.00% # Request fanout histogram
system.membus.snoop_fanout::min_value               0                       # Request fanout histogram
system.membus.snoop_fanout::max_value               0                       # Request fanout histogram
system.membus.snoop_fanout::total               97960                       # Request fanout histogram
system.membus.reqLayer2.occupancy           366321500                       # Layer occupancy (ticks)
system.membus.reqLayer2.utilization               2.6                       # Layer utilization (%)
system.membus.respLayer1.occupancy          523362750                       # Layer occupancy (ticks)
system.membus.respLayer1.utilization              3.7                       # Layer utilization (%)
system.membus.power_state.pwrStateResidencyTicks::UNDEFINED  14048077500                       # Cumulative time (in ticks) in various power states
system.switch_cpus.dtb.walker.power_state.pwrStateResidencyTicks::UNDEFINED  14048077500                       # Cumulative time (in ticks) in various power states
system.switch_cpus.itb.walker.power_state.pwrStateResidencyTicks::UNDEFINED  14048077500                       # Cumulative time (in ticks) in various power states
system.switch_cpus.power_state.pwrStateResidencyTicks::OFF  14048077500                       # Cumulative time (in ticks) in various power states
system.tol2bus.trans_dist::ReadResp            671531                       # Transaction distribution
system.tol2bus.trans_dist::WritebackDirty       103542                       # Transaction distribution
system.tol2bus.trans_dist::WritebackClean       590677                       # Transaction distribution
system.tol2bus.trans_dist::CleanEvict          209620                       # Transaction distribution
system.tol2bus.trans_dist::UpgradeReq               1                       # Transaction distribution
system.tol2bus.trans_dist::UpgradeResp              1                       # Transaction distribution
system.tol2bus.trans_dist::ReadExReq            53225                       # Transaction distribution
system.tol2bus.trans_dist::ReadExResp           53225                       # Transaction distribution
system.tol2bus.trans_dist::ReadCleanReq        590743                       # Transaction distribution
system.tol2bus.trans_dist::ReadSharedReq        80789                       # Transaction distribution
system.tol2bus.pkt_count_system.cpu.icache.mem_side::system.l2.cpu_side      1772162                       # Packet count per connected master and slave (bytes)
system.tol2bus.pkt_count_system.cpu.dcache.mem_side::system.l2.cpu_side       401980                       # Packet count per connected master and slave (bytes)
system.tol2bus.pkt_count::total               2174142                       # Packet count per connected master and slave (bytes)
system.tol2bus.pkt_size_system.cpu.icache.mem_side::system.l2.cpu_side     75610816                       # Cumulative packet size per connected master and slave (bytes)
system.tol2bus.pkt_size_system.cpu.dcache.mem_side::system.l2.cpu_side     12898624                       # Cumulative packet size per connected master and slave (bytes)
system.tol2bus.pkt_size::total               88509440                       # Cumulative packet size per connected master and slave (bytes)
system.tol2bus.snoops                          179212                       # Total snoops (count)
system.tol2bus.snoopTraffic                   2304960                       # Total snoop traffic (bytes)
system.tol2bus.snoop_fanout::samples           903970                       # Request fanout histogram
system.tol2bus.snoop_fanout::mean            0.101572                       # Request fanout histogram
system.tol2bus.snoop_fanout::stdev           0.302096                       # Request fanout histogram
system.tol2bus.snoop_fanout::underflows             0      0.00%      0.00% # Request fanout histogram
system.tol2bus.snoop_fanout::0                 812155     89.84%     89.84% # Request fanout histogram
system.tol2bus.snoop_fanout::1                  91812     10.16%    100.00% # Request fanout histogram
system.tol2bus.snoop_fanout::2                      3      0.00%    100.00% # Request fanout histogram
system.tol2bus.snoop_fanout::3                      0      0.00%    100.00% # Request fanout histogram
system.tol2bus.snoop_fanout::4                      0      0.00%    100.00% # Request fanout histogram
system.tol2bus.snoop_fanout::overflows              0      0.00%    100.00% # Request fanout histogram
system.tol2bus.snoop_fanout::min_value              0                       # Request fanout histogram
system.tol2bus.snoop_fanout::max_value              2                       # Request fanout histogram
system.tol2bus.snoop_fanout::total             903970                       # Request fanout histogram
system.tol2bus.reqLayer0.occupancy         1382894500                       # Layer occupancy (ticks)
system.tol2bus.reqLayer0.utilization              9.8                       # Layer utilization (%)
system.tol2bus.respLayer1.occupancy         201326383                       # Layer occupancy (ticks)
system.tol2bus.respLayer1.utilization             1.4                       # Layer utilization (%)
system.tol2bus.respLayer0.occupancy         886719279                       # Layer occupancy (ticks)
system.tol2bus.respLayer0.utilization             6.3                       # Layer utilization (%)
system.tol2bus.power_state.pwrStateResidencyTicks::UNDEFINED  14048077500                       # Cumulative time (in ticks) in various power states
system.voltage_domain.voltage                       1                       # Voltage in Volts
system.clk_domain.clock                          1000                       # Clock period in ticks
system.l2.demand_hits::.switch_cpus.inst       540889                       # number of demand (read+write) hits
system.l2.demand_hits::.switch_cpus.data        85905                       # number of demand (read+write) hits
system.l2.demand_hits::total                   626794                       # number of demand (read+write) hits
system.l2.overall_hits::.switch_cpus.inst       540889                       # number of overall hits
system.l2.overall_hits::.switch_cpus.data        85905                       # number of overall hits
system.l2.overall_hits::total                  626794                       # number of overall hits
system.l2.demand_misses::.cpu.inst                  2                       # number of demand (read+write) misses
system.l2.demand_misses::.cpu.data                  2                       # number of demand (read+write) misses
system.l2.demand_misses::.switch_cpus.inst        49852                       # number of demand (read+write) misses
system.l2.demand_misses::.switch_cpus.data        48107                       # number of demand (read+write) misses
system.l2.demand_misses::total                  97963                       # number of demand (read+write) misses
system.l2.overall_misses::.cpu.inst                 2                       # number of overall misses
system.l2.overall_misses::.cpu.data                 2                       # number of overall misses
system.l2.overall_misses::.switch_cpus.inst        49852                       # number of overall misses
system.l2.overall_misses::.switch_cpus.data        48107                       # number of overall misses
system.l2.overall_misses::total                 97963                       # number of overall misses
system.l2.demand_miss_latency::.switch_cpus.inst   4029575500                       # number of demand (read+write) miss cycles
system.l2.demand_miss_latency::.switch_cpus.data   4025991500                       # number of demand (read+write) miss cycles
system.l2.demand_miss_latency::total       8055567000                       # number of demand (read+write) miss cycles
system.l2.overall_miss_latency::.switch_cpus.inst   4029575500                       # number of overall miss cycles
system.l2.overall_miss_latency::.switch_cpus.data   4025991500                       # number of overall miss cycles
system.l2.overall_miss_latency::total      8055567000                       # number of overall miss cycles
system.l2.demand_accesses::.cpu.inst                2                       # number of demand (read+write) accesses
system.l2.demand_accesses::.cpu.data                2                       # number of demand (read+write) accesses
system.l2.demand_accesses::.switch_cpus.inst       590741                       # number of demand (read+write) accesses
system.l2.demand_accesses::.switch_cpus.data       134012                       # number of demand (read+write) accesses
system.l2.demand_accesses::total               724757                       # number of demand (read+write) accesses
system.l2.overall_accesses::.cpu.inst               2                       # number of overall (read+write) accesses
system.l2.overall_accesses::.cpu.data               2                       # number of overall (read+write) accesses
system.l2.overall_accesses::.switch_cpus.inst       590741                       # number of overall (read+write) accesses
system.l2.overall_accesses::.switch_cpus.data       134012                       # number of overall (read+write) accesses
system.l2.overall_accesses::total              724757                       # number of overall (read+write) accesses
system.l2.demand_miss_rate::.cpu.inst               1                       # miss rate for demand accesses
system.l2.demand_miss_rate::.cpu.data               1                       # miss rate for demand accesses
system.l2.demand_miss_rate::.switch_cpus.inst     0.084389                       # miss rate for demand accesses
system.l2.demand_miss_rate::.switch_cpus.data     0.358975                       # miss rate for demand accesses
system.l2.demand_miss_rate::total            0.135167                       # miss rate for demand accesses
system.l2.overall_miss_rate::.cpu.inst              1                       # miss rate for overall accesses
system.l2.overall_miss_rate::.cpu.data              1                       # miss rate for overall accesses
system.l2.overall_miss_rate::.switch_cpus.inst     0.084389                       # miss rate for overall accesses
system.l2.overall_miss_rate::.switch_cpus.data     0.358975                       # miss rate for overall accesses
system.l2.overall_miss_rate::total           0.135167                       # miss rate for overall accesses
system.l2.demand_avg_miss_latency::.switch_cpus.inst 80830.769076                       # average overall miss latency
system.l2.demand_avg_miss_latency::.switch_cpus.data 83688.267820                       # average overall miss latency
system.l2.demand_avg_miss_latency::total 82230.709554                       # average overall miss latency
system.l2.overall_avg_miss_latency::.switch_cpus.inst 80830.769076                       # average overall miss latency
system.l2.overall_avg_miss_latency::.switch_cpus.data 83688.267820                       # average overall miss latency
system.l2.overall_avg_miss_latency::total 82230.709554                       # average overall miss latency
system.l2.blocked_cycles::no_mshrs                  0                       # number of cycles access was blocked
system.l2.blocked_cycles::no_targets                0                       # number of cycles access was blocked
system.l2.blocked::no_mshrs                         0                       # number of cycles access was blocked
system.l2.blocked::no_targets                       0                       # number of cycles access was blocked
system.l2.avg_blocked_cycles::no_mshrs            nan                       # average number of cycles each access was blocked
system.l2.avg_blocked_cycles::no_targets          nan                       # average number of cycles each access was blocked
system.l2.writebacks::.writebacks               36015                       # number of writebacks
system.l2.writebacks::total                     36015                       # number of writebacks
system.l2.demand_mshr_hits::.switch_cpus.inst            1                       # number of demand (read+write) MSHR hits
system.l2.demand_mshr_hits::.switch_cpus.data            2                       # number of demand (read+write) MSHR hits
system.l2.demand_mshr_hits::total                   3                       # number of demand (read+write) MSHR hits
system.l2.overall_mshr_hits::.switch_cpus.inst            1                       # number of overall MSHR hits
system.l2.overall_mshr_hits::.switch_cpus.data            2                       # number of overall MSHR hits
system.l2.overall_mshr_hits::total                  3                       # number of overall MSHR hits
system.l2.demand_mshr_misses::.switch_cpus.inst        49851                       # number of demand (read+write) MSHR misses
system.l2.demand_mshr_misses::.switch_cpus.data        48105                       # number of demand (read+write) MSHR misses
system.l2.demand_mshr_misses::total             97956                       # number of demand (read+write) MSHR misses
system.l2.overall_mshr_misses::.switch_cpus.inst        49851                       # number of overall MSHR misses
system.l2.overall_mshr_misses::.switch_cpus.data        48105                       # number of overall MSHR misses
system.l2.overall_mshr_misses::total            97956                       # number of overall MSHR misses
system.l2.demand_mshr_miss_latency::.switch_cpus.inst   3530997000                       # number of demand (read+write) MSHR miss cycles
system.l2.demand_mshr_miss_latency::.switch_cpus.data   3544820500                       # number of demand (read+write) MSHR miss cycles
system.l2.demand_mshr_miss_latency::total   7075817500                       # number of demand (read+write) MSHR miss cycles
system.l2.overall_mshr_miss_latency::.switch_cpus.inst   3530997000                       # number of overall MSHR miss cycles
system.l2.overall_mshr_miss_latency::.switch_cpus.data   3544820500                       # number of overall MSHR miss cycles
system.l2.overall_mshr_miss_latency::total   7075817500                       # number of overall MSHR miss cycles
system.l2.demand_mshr_miss_rate::.switch_cpus.inst     0.084387                       # mshr miss rate for demand accesses
system.l2.demand_mshr_miss_rate::.switch_cpus.data     0.358960                       # mshr miss rate for demand accesses
system.l2.demand_mshr_miss_rate::total       0.135157                       # mshr miss rate for demand accesses
system.l2.overall_mshr_miss_rate::.switch_cpus.inst     0.084387                       # mshr miss rate for overall accesses
system.l2.overall_mshr_miss_rate::.switch_cpus.data     0.358960                       # mshr miss rate for overall accesses
system.l2.overall_mshr_miss_rate::total      0.135157                       # mshr miss rate for overall accesses
system.l2.demand_avg_mshr_miss_latency::.switch_cpus.inst 70831.016429                       # average overall mshr miss latency
system.l2.demand_avg_mshr_miss_latency::.switch_cpus.data 73689.231889                       # average overall mshr miss latency
system.l2.demand_avg_mshr_miss_latency::total 72234.651272                       # average overall mshr miss latency
system.l2.overall_avg_mshr_miss_latency::.switch_cpus.inst 70831.016429                       # average overall mshr miss latency
system.l2.overall_avg_mshr_miss_latency::.switch_cpus.data 73689.231889                       # average overall mshr miss latency
system.l2.overall_avg_mshr_miss_latency::total 72234.651272                       # average overall mshr miss latency
system.l2.replacements                         179212                       # number of replacements
system.l2.WritebackDirty_hits::.writebacks        67527                       # number of WritebackDirty hits
system.l2.WritebackDirty_hits::total            67527                       # number of WritebackDirty hits
system.l2.WritebackDirty_accesses::.writebacks        67527                       # number of WritebackDirty accesses(hits+misses)
system.l2.WritebackDirty_accesses::total        67527                       # number of WritebackDirty accesses(hits+misses)
system.l2.WritebackClean_hits::.writebacks       590677                       # number of WritebackClean hits
system.l2.WritebackClean_hits::total           590677                       # number of WritebackClean hits
system.l2.WritebackClean_accesses::.writebacks       590677                       # number of WritebackClean accesses(hits+misses)
system.l2.WritebackClean_accesses::total       590677                       # number of WritebackClean accesses(hits+misses)
system.l2.CleanEvict_mshr_misses::.writebacks        10240                       # number of CleanEvict MSHR misses
system.l2.CleanEvict_mshr_misses::total         10240                       # number of CleanEvict MSHR misses
system.l2.CleanEvict_mshr_miss_rate::.writebacks          inf                       # mshr miss rate for CleanEvict accesses
system.l2.CleanEvict_mshr_miss_rate::total          inf                       # mshr miss rate for CleanEvict accesses
system.l2.UpgradeReq_hits::.switch_cpus.data            1                       # number of UpgradeReq hits
system.l2.UpgradeReq_hits::total                    1                       # number of UpgradeReq hits
system.l2.UpgradeReq_accesses::.switch_cpus.data            1                       # number of UpgradeReq accesses(hits+misses)
system.l2.UpgradeReq_accesses::total                1                       # number of UpgradeReq accesses(hits+misses)
system.l2.ReadExReq_hits::.switch_cpus.data        23915                       # number of ReadExReq hits
system.l2.ReadExReq_hits::total                 23915                       # number of ReadExReq hits
system.l2.ReadExReq_misses::.cpu.data               2                       # number of ReadExReq misses
system.l2.ReadExReq_misses::.switch_cpus.data        29308                       # number of ReadExReq misses
system.l2.ReadExReq_misses::total               29310                       # number of ReadExReq misses
system.l2.ReadExReq_miss_latency::.switch_cpus.data   2391397000                       # number of ReadExReq miss cycles
system.l2.ReadExReq_miss_latency::total    2391397000                       # number of ReadExReq miss cycles
system.l2.ReadExReq_accesses::.cpu.data             2                       # number of ReadExReq accesses(hits+misses)
system.l2.ReadExReq_accesses::.switch_cpus.data        53223                       # number of ReadExReq accesses(hits+misses)
system.l2.ReadExReq_accesses::total             53225                       # number of ReadExReq accesses(hits+misses)
system.l2.ReadExReq_miss_rate::.cpu.data            1                       # miss rate for ReadExReq accesses
system.l2.ReadExReq_miss_rate::.switch_cpus.data     0.550664                       # miss rate for ReadExReq accesses
system.l2.ReadExReq_miss_rate::total         0.550681                       # miss rate for ReadExReq accesses
system.l2.ReadExReq_avg_miss_latency::.switch_cpus.data 81595.366453                       # average ReadExReq miss latency
system.l2.ReadExReq_avg_miss_latency::total 81589.798704                       # average ReadExReq miss latency
system.l2.ReadExReq_mshr_misses::.switch_cpus.data        29308                       # number of ReadExReq MSHR misses
system.l2.ReadExReq_mshr_misses::total          29308                       # number of ReadExReq MSHR misses
system.l2.ReadExReq_mshr_miss_latency::.switch_cpus.data   2098317000                       # number of ReadExReq MSHR miss cycles
system.l2.ReadExReq_mshr_miss_latency::total   2098317000                       # number of ReadExReq MSHR miss cycles
system.l2.ReadExReq_mshr_miss_rate::.switch_cpus.data     0.550664                       # mshr miss rate for ReadExReq accesses
system.l2.ReadExReq_mshr_miss_rate::total     0.550643                       # mshr miss rate for ReadExReq accesses
[...]
system.cpu.itb_walker_cache.blocked_cycles::no_targets            0                       # number of cycles access was blocked
system.cpu.itb_walker_cache.blocked::no_mshrs            0                       # number of cycles access was blocked
system.cpu.itb_walker_cache.blocked::no_targets            0                       # number of cycles access was blocked
system.cpu.itb_walker_cache.avg_blocked_cycles::no_mshrs          nan                       # average number of cycles each access was blocked
system.cpu.itb_walker_cache.avg_blocked_cycles::no_targets          nan                       # average number of cycles each access was blocked
system.cpu.itb_walker_cache.replacements            0                       # number of replacements
system.cpu.itb_walker_cache.power_state.pwrStateResidencyTicks::UNDEFINED  15433932500                       # Cumulative time (in ticks) in various power states
system.cpu.itb_walker_cache.tags.tagsinuse            0                       # Cycle average of tags in use
system.cpu.itb_walker_cache.tags.total_refs            0                       # Total number of references to valid blocks.
system.cpu.itb_walker_cache.tags.sampled_refs            0                       # Sample count of references to valid blocks.
system.cpu.itb_walker_cache.tags.avg_refs          nan                       # Average number of references to valid blocks.
system.cpu.itb_walker_cache.tags.warmup_cycle            0                       # Cycle when the warmup percentage was hit.
system.cpu.itb_walker_cache.tags.tag_accesses            0                       # Number of tag accesses
system.cpu.itb_walker_cache.tags.data_accesses            0                       # Number of data accesses
system.cpu.itb_walker_cache.tags.power_state.pwrStateResidencyTicks::UNDEFINED  15433932500                       # Cumulative time (in ticks) in various power states
system.cpu.itb.walker.power_state.pwrStateResidencyTicks::UNDEFINED  15433932500                       # Cumulative time (in ticks) in various power states
system.cpu.dtb_walker_cache.blocked_cycles::no_mshrs            0                       # number of cycles access was blocked
system.cpu.dtb_walker_cache.blocked_cycles::no_targets            0                       # number of cycles access was blocked
system.cpu.dtb_walker_cache.blocked::no_mshrs            0                       # number of cycles access was blocked
system.cpu.dtb_walker_cache.blocked::no_targets            0                       # number of cycles access was blocked
system.cpu.dtb_walker_cache.avg_blocked_cycles::no_mshrs          nan                       # average number of cycles each access was blocked
system.cpu.dtb_walker_cache.avg_blocked_cycles::no_targets          nan                       # average number of cycles each access was blocked
system.cpu.dtb_walker_cache.replacements            0                       # number of replacements
system.cpu.dtb_walker_cache.power_state.pwrStateResidencyTicks::UNDEFINED  15433932500                       # Cumulative time (in ticks) in various power states
system.cpu.dtb_walker_cache.tags.tagsinuse            0                       # Cycle average of tags in use
system.cpu.dtb_walker_cache.tags.total_refs            0                       # Total number of references to valid blocks.
system.cpu.dtb_walker_cache.tags.sampled_refs            0                       # Sample count of references to valid blocks.
system.cpu.dtb_walker_cache.tags.avg_refs          nan                       # Average number of references to valid blocks.
system.cpu.dtb_walker_cache.tags.warmup_cycle            0                       # Cycle when the warmup percentage was hit.
system.cpu.dtb_walker_cache.tags.tag_accesses            0                       # Number of tag accesses
system.cpu.dtb_walker_cache.tags.data_accesses            0                       # Number of data accesses
system.cpu.dtb_walker_cache.tags.power_state.pwrStateResidencyTicks::UNDEFINED  15433932500                       # Cumulative time (in ticks) in various power states
system.cpu.dcache.demand_hits::.cpu.data            5                       # number of demand (read+write) hits
system.cpu.dcache.demand_hits::.switch_cpus.data      3490697                       # number of demand (read+write) hits
system.cpu.dcache.demand_hits::total          3490702                       # number of demand (read+write) hits
system.cpu.dcache.overall_hits::.cpu.data            5                       # number of overall hits
system.cpu.dcache.overall_hits::.switch_cpus.data      3490697                       # number of overall hits
system.cpu.dcache.overall_hits::total         3490702                       # number of overall hits
system.cpu.dcache.demand_misses::.cpu.data            2                       # number of demand (read+write) misses
system.cpu.dcache.demand_misses::.switch_cpus.data       234770                       # number of demand (read+write) misses
system.cpu.dcache.demand_misses::total         234772                       # number of demand (read+write) misses
system.cpu.dcache.overall_misses::.cpu.data            2                       # number of overall misses
system.cpu.dcache.overall_misses::.switch_cpus.data       234770                       # number of overall misses
system.cpu.dcache.overall_misses::total        234772                       # number of overall misses
system.cpu.dcache.demand_miss_latency::.switch_cpus.data   9226709974                       # number of demand (read+write) miss cycles
system.cpu.dcache.demand_miss_latency::total   9226709974                       # number of demand (read+write) miss cycles
system.cpu.dcache.overall_miss_latency::.switch_cpus.data   9226709974                       # number of overall miss cycles
system.cpu.dcache.overall_miss_latency::total   9226709974                       # number of overall miss cycles
system.cpu.dcache.demand_accesses::.cpu.data            7                       # number of demand (read+write) accesses
system.cpu.dcache.demand_accesses::.switch_cpus.data      3725467                       # number of demand (read+write) accesses
system.cpu.dcache.demand_accesses::total      3725474                       # number of demand (read+write) accesses
system.cpu.dcache.overall_accesses::.cpu.data            7                       # number of overall (read+write) accesses
system.cpu.dcache.overall_accesses::.switch_cpus.data      3725467                       # number of overall (read+write) accesses
system.cpu.dcache.overall_accesses::total      3725474                       # number of overall (read+write) accesses
system.cpu.dcache.demand_miss_rate::.cpu.data     0.285714                       # miss rate for demand accesses
system.cpu.dcache.demand_miss_rate::.switch_cpus.data     0.063018                       # miss rate for demand accesses
system.cpu.dcache.demand_miss_rate::total     0.063018                       # miss rate for demand accesses
system.cpu.dcache.overall_miss_rate::.cpu.data     0.285714                       # miss rate for overall accesses
system.cpu.dcache.overall_miss_rate::.switch_cpus.data     0.063018                       # miss rate for overall accesses
system.cpu.dcache.overall_miss_rate::total     0.063018                       # miss rate for overall accesses
system.cpu.dcache.demand_avg_miss_latency::.switch_cpus.data 39301.060502                       # average overall miss latency
system.cpu.dcache.demand_avg_miss_latency::total 39300.725700                       # average overall miss latency
system.cpu.dcache.overall_avg_miss_latency::.switch_cpus.data 39301.060502                       # average overall miss latency
system.cpu.dcache.overall_avg_miss_latency::total 39300.725700                       # average overall miss latency
system.cpu.dcache.blocked_cycles::no_mshrs       186993                       # number of cycles access was blocked
system.cpu.dcache.blocked_cycles::no_targets          293                       # number of cycles access was blocked
system.cpu.dcache.blocked::no_mshrs              7904                       # number of cycles access was blocked
system.cpu.dcache.blocked::no_targets               8                       # number of cycles access was blocked
system.cpu.dcache.avg_blocked_cycles::no_mshrs    23.658021                       # average number of cycles each access was blocked
system.cpu.dcache.avg_blocked_cycles::no_targets    36.625000                       # average number of cycles each access was blocked
system.cpu.dcache.writebacks::.writebacks        74133                       # number of writebacks
system.cpu.dcache.writebacks::total             74133                       # number of writebacks
system.cpu.dcache.demand_mshr_hits::.switch_cpus.data        87873                       # number of demand (read+write) MSHR hits
system.cpu.dcache.demand_mshr_hits::total        87873                       # number of demand (read+write) MSHR hits
system.cpu.dcache.overall_mshr_hits::.switch_cpus.data        87873                       # number of overall MSHR hits
system.cpu.dcache.overall_mshr_hits::total        87873                       # number of overall MSHR hits
system.cpu.dcache.demand_mshr_misses::.switch_cpus.data       146897                       # number of demand (read+write) MSHR misses
system.cpu.dcache.demand_mshr_misses::total       146897                       # number of demand (read+write) MSHR misses
system.cpu.dcache.overall_mshr_misses::.switch_cpus.data       146897                       # number of overall MSHR misses
system.cpu.dcache.overall_mshr_misses::total       146897                       # number of overall MSHR misses
system.cpu.dcache.demand_mshr_miss_latency::.switch_cpus.data   5649729976                       # number of demand (read+write) MSHR miss cycles
system.cpu.dcache.demand_mshr_miss_latency::total   5649729976                       # number of demand (read+write) MSHR miss cycles
system.cpu.dcache.overall_mshr_miss_latency::.switch_cpus.data   5649729976                       # number of overall MSHR miss cycles
system.cpu.dcache.overall_mshr_miss_latency::total   5649729976                       # number of overall MSHR miss cycles
system.cpu.dcache.demand_mshr_miss_rate::.switch_cpus.data     0.039430                       # mshr miss rate for demand accesses
system.cpu.dcache.demand_mshr_miss_rate::total     0.039430                       # mshr miss rate for demand accesses
system.cpu.dcache.overall_mshr_miss_rate::.switch_cpus.data     0.039430                       # mshr miss rate for overall accesses
system.cpu.dcache.overall_mshr_miss_rate::total     0.039430                       # mshr miss rate for overall accesses
system.cpu.dcache.demand_avg_mshr_miss_latency::.switch_cpus.data 38460.485755                       # average overall mshr miss latency
system.cpu.dcache.demand_avg_mshr_miss_latency::total 38460.485755                       # average overall mshr miss latency
system.cpu.dcache.overall_avg_mshr_miss_latency::.switch_cpus.data 38460.485755                       # average overall mshr miss latency
system.cpu.dcache.overall_avg_mshr_miss_latency::total 38460.485755                       # average overall mshr miss latency
system.cpu.dcache.replacements                 146832                       # number of replacements
system.cpu.dcache.ReadReq_hits::.switch_cpus.data      1933162                       # number of ReadReq hits
system.cpu.dcache.ReadReq_hits::total         1933162                       # number of ReadReq hits
system.cpu.dcache.ReadReq_misses::.switch_cpus.data       173265                       # number of ReadReq misses
system.cpu.dcache.ReadReq_misses::total        173265                       # number of ReadReq misses
system.cpu.dcache.ReadReq_miss_latency::.switch_cpus.data   6091040000                       # number of ReadReq miss cycles
system.cpu.dcache.ReadReq_miss_latency::total   6091040000                       # number of ReadReq miss cycles
system.cpu.dcache.ReadReq_accesses::.switch_cpus.data      2106427                       # number of ReadReq accesses(hits+misses)
system.cpu.dcache.ReadReq_accesses::total      2106427                       # number of ReadReq accesses(hits+misses)
system.cpu.dcache.ReadReq_miss_rate::.switch_cpus.data     0.082255                       # miss rate for ReadReq accesses
system.cpu.dcache.ReadReq_miss_rate::total     0.082255                       # miss rate for ReadReq accesses
system.cpu.dcache.ReadReq_avg_miss_latency::.switch_cpus.data 35154.474360                       # average ReadReq miss latency
system.cpu.dcache.ReadReq_avg_miss_latency::total 35154.474360                       # average ReadReq miss latency
system.cpu.dcache.ReadReq_mshr_hits::.switch_cpus.data        84932                       # number of ReadReq MSHR hits
system.cpu.dcache.ReadReq_mshr_hits::total        84932                       # number of ReadReq MSHR hits
system.cpu.dcache.ReadReq_mshr_misses::.switch_cpus.data        88333                       # number of ReadReq MSHR misses
system.cpu.dcache.ReadReq_mshr_misses::total        88333                       # number of ReadReq MSHR misses
system.cpu.dcache.ReadReq_mshr_miss_latency::.switch_cpus.data   2613077500                       # number of ReadReq MSHR miss cycles
system.cpu.dcache.ReadReq_mshr_miss_latency::total   2613077500                       # number of ReadReq MSHR miss cycles
system.cpu.dcache.ReadReq_mshr_miss_rate::.switch_cpus.data     0.041935                       # mshr miss rate for ReadReq accesses
system.cpu.dcache.ReadReq_mshr_miss_rate::total     0.041935                       # mshr miss rate for ReadReq accesses
system.cpu.dcache.ReadReq_avg_mshr_miss_latency::.switch_cpus.data 29582.121065                       # average ReadReq mshr miss latency
system.cpu.dcache.ReadReq_avg_mshr_miss_latency::total 29582.121065                       # average ReadReq mshr miss latency
system.cpu.dcache.WriteReq_hits::.cpu.data            5                       # number of WriteReq hits
system.cpu.dcache.WriteReq_hits::.switch_cpus.data      1557535                       # number of WriteReq hits
system.cpu.dcache.WriteReq_hits::total        1557540                       # number of WriteReq hits
system.cpu.dcache.WriteReq_misses::.cpu.data            2                       # number of WriteReq misses
system.cpu.dcache.WriteReq_misses::.switch_cpus.data        61505                       # number of WriteReq misses
system.cpu.dcache.WriteReq_misses::total        61507                       # number of WriteReq misses
system.cpu.dcache.WriteReq_miss_latency::.switch_cpus.data   3135669974                       # number of WriteReq miss cycles
system.cpu.dcache.WriteReq_miss_latency::total   3135669974                       # number of WriteReq miss cycles
system.cpu.dcache.WriteReq_accesses::.cpu.data            7                       # number of WriteReq accesses(hits+misses)
system.cpu.dcache.WriteReq_accesses::.switch_cpus.data      1619040                       # number of WriteReq accesses(hits+misses)
system.cpu.dcache.WriteReq_accesses::total      1619047                       # number of WriteReq accesses(hits+misses)
system.cpu.dcache.WriteReq_miss_rate::.cpu.data     0.285714                       # miss rate for WriteReq accesses
system.cpu.dcache.WriteReq_miss_rate::.switch_cpus.data     0.037989                       # miss rate for WriteReq accesses
system.cpu.dcache.WriteReq_miss_rate::total     0.037990                       # miss rate for WriteReq accesses
system.cpu.dcache.WriteReq_avg_miss_latency::.switch_cpus.data 50982.358735                       # average WriteReq miss latency
system.cpu.dcache.WriteReq_avg_miss_latency::total 50980.700961                       # average WriteReq miss latency
system.cpu.dcache.WriteReq_mshr_hits::.switch_cpus.data         2941                       # number of WriteReq MSHR hits
system.cpu.dcache.WriteReq_mshr_hits::total         2941                       # number of WriteReq MSHR hits
system.cpu.dcache.WriteReq_mshr_misses::.switch_cpus.data        58564                       # number of WriteReq MSHR misses
system.cpu.dcache.WriteReq_mshr_misses::total        58564                       # number of WriteReq MSHR misses
system.cpu.dcache.WriteReq_mshr_miss_latency::.switch_cpus.data   3036652476                       # number of WriteReq MSHR miss cycles
system.cpu.dcache.WriteReq_mshr_miss_latency::total   3036652476                       # number of WriteReq MSHR miss cycles
system.cpu.dcache.WriteReq_mshr_miss_rate::.switch_cpus.data     0.036172                       # mshr miss rate for WriteReq accesses
system.cpu.dcache.WriteReq_mshr_miss_rate::total     0.036172                       # mshr miss rate for WriteReq accesses
system.cpu.dcache.WriteReq_avg_mshr_miss_latency::.switch_cpus.data 51851.862509                       # average WriteReq mshr miss latency
system.cpu.dcache.WriteReq_avg_mshr_miss_latency::total 51851.862509                       # average WriteReq mshr miss latency
system.cpu.dcache.power_state.pwrStateResidencyTicks::UNDEFINED  15433932500                       # Cumulative time (in ticks) in various power states
system.cpu.dcache.tags.tagsinuse            63.989719                       # Cycle average of tags in use
system.cpu.dcache.tags.total_refs             3637599                       # Total number of references to valid blocks.
system.cpu.dcache.tags.sampled_refs            146896                       # Sample count of references to valid blocks.
system.cpu.dcache.tags.avg_refs             24.763091                       # Average number of references to valid blocks.
system.cpu.dcache.tags.warmup_cycle              1500                       # Cycle when the warmup percentage was hit.
system.cpu.dcache.tags.occ_blocks::.cpu.data     0.000275                       # Average occupied blocks per requestor
system.cpu.dcache.tags.occ_blocks::.switch_cpus.data    63.989444                       # Average occupied blocks per requestor
system.cpu.dcache.tags.occ_percent::.cpu.data     0.000004                       # Average percentage of cache occupancy
system.cpu.dcache.tags.occ_percent::.switch_cpus.data     0.999835                       # Average percentage of cache occupancy
system.cpu.dcache.tags.occ_percent::total     0.999839                       # Average percentage of cache occupancy
system.cpu.dcache.tags.occ_task_id_blocks::1024           64                       # Occupied blocks per task id
system.cpu.dcache.tags.age_task_id_blocks_1024::0           28                       # Occupied blocks per task id
system.cpu.dcache.tags.age_task_id_blocks_1024::1           29                       # Occupied blocks per task id
system.cpu.dcache.tags.age_task_id_blocks_1024::2            7                       # Occupied blocks per task id
system.cpu.dcache.tags.occ_task_id_percent::1024            1                       # Percentage of cache occupancy per task id
system.cpu.dcache.tags.tag_accesses           7597844                       # Number of tag accesses
system.cpu.dcache.tags.data_accesses          7597844                       # Number of data accesses
system.cpu.dcache.tags.power_state.pwrStateResidencyTicks::UNDEFINED  15433932500                       # Cumulative time (in ticks) in various power states
system.cpu.power_state.numTransitions               1                       # Number of power state transitions
system.cpu.power_state.pwrStateResidencyTicks::ON        10500                       # Cumulative time (in ticks) in various power states
system.cpu.power_state.pwrStateResidencyTicks::OFF  15433922000                       # Cumulative time (in ticks) in various power states

---------- End Simulation Statistics   ----------
