
---------- Begin Simulation Statistics ----------
final_tick                                 3769070000                       # Number of ticks from beginning of simulation (restored from checkpoints and never reset)
host_inst_rate                                 115594                       # Simulator instruction rate (inst/s)
host_mem_usage                                 878052                       # Number of bytes of host memory used
host_op_rate                                   210374                       # Simulator op (including micro ops) rate (op/s)
host_seconds                                    86.51                       # Real time elapsed on the host
host_tick_rate                               43567032                       # Simulator tick rate (ticks/s)
sim_freq                                 1000000000000                       # Frequency of simulated ticks
sim_insts                                    10000014                       # Number of instructions simulated
sim_ops                                      18199791                       # Number of ops (including micro ops) simulated
sim_seconds                                  0.003769                       # Number of seconds simulated
sim_ticks                                  3769070000                       # Number of ticks simulated
system.cpu.Branches                                 1                       # Number of branches fetched
system.cpu.committedInsts                          10                       # Number of instructions committed
system.cpu.committedOps                            21                       # Number of ops (including micro ops) committed
system.cpu.dtb.rdAccesses                           0                       # TLB accesses on read requests
system.cpu.dtb.rdMisses                             0                       # TLB misses on read requests
system.cpu.dtb.wrAccesses                           7                       # TLB accesses on write requests
system.cpu.dtb.wrMisses                             1                       # TLB misses on write requests
system.cpu.idle_fraction                            0                       # Percentage of idle cycles
system.cpu.itb.rdAccesses                           0                       # TLB accesses on read requests
system.cpu.itb.rdMisses                             0                       # TLB misses on read requests
system.cpu.itb.wrAccesses                          10                       # TLB accesses on write requests
system.cpu.itb.wrMisses                             0                       # TLB misses on write requests
system.cpu.not_idle_fraction                        1                       # Percentage of non-idle cycles
system.cpu.numCycles                               21                       # number of cpu cycles simulated
system.cpu.numWorkItemsCompleted                    0                       # number of work items this cpu completed
system.cpu.numWorkItemsStarted                      0                       # number of work items this cpu started
system.cpu.num_busy_cycles                         21                       # Number of busy cycles
system.cpu.num_cc_register_writes                   2                       # number of times the CC registers were written
system.cpu.num_conditional_control_insts            0                       # number of instructions that are conditional controls
system.cpu.num_fp_alu_accesses                      0                       # Number of float alu accesses
system.cpu.num_fp_insts                             0                       # number of float instructions
system.cpu.num_fp_register_reads                    0                       # number of times the floating registers were read
system.cpu.num_fp_register_writes                   0                       # number of times the floating registers were written
system.cpu.num_func_calls                           1                       # number of times a function call or return occured
system.cpu.num_idle_cycles                          0                       # Number of idle cycles
system.cpu.num_int_alu_accesses                    21                       # Number of integer alu accesses
system.cpu.num_int_insts                           21                       # number of integer instructions
system.cpu.num_int_register_reads                  47                       # number of times the integer registers were read
system.cpu.num_int_register_writes                 13                       # number of times the integer registers were written
system.cpu.num_load_insts                           0                       # Number of load instructions
system.cpu.num_mem_refs                             7                       # number of memory refs
system.cpu.num_store_insts                          7                       # Number of store instructions
system.cpu.num_vec_alu_accesses                     0                       # Number of vector alu accesses
system.cpu.num_vec_insts                            0                       # number of vector instructions
system.cpu.num_vec_register_reads                   0                       # number of times the vector registers were read
system.cpu.num_vec_register_writes                  0                       # number of times the vector registers were written
system.cpu.op_class::No_OpClass                     0      0.00%      0.00% # Class of executed instruction
system.cpu.op_class::IntAlu                        14     66.67%     66.67% # Class of executed instruction
system.cpu.op_class::IntMult                        0      0.00%     66.67% # Class of executed instruction
system.cpu.op_class::IntDiv                         0      0.00%     66.67% # Class of executed instruction
system.cpu.op_class::FloatAdd                       0      0.00%     66.67% # Class of executed instruction
system.cpu.op_class::FloatCmp                       0      0.00%     66.67% # Class of executed instruction
system.cpu.op_class::FloatCvt                       0      0.00%     66.67% # Class of executed instruction
system.cpu.op_class::FloatMult                      0      0.00%     66.67% # Class of executed instruction
system.cpu.op_class::FloatMultAcc                   0      0.00%     66.67% # Class of executed instruction
system.cpu.op_class::FloatDiv                       0      0.00%     66.67% # Class of executed instruction
system.cpu.op_class::FloatMisc                      0      0.00%     66.67% # Class of executed instruction
system.cpu.op_class::FloatSqrt                      0      0.00%     66.67% # Class of executed instruction
system.cpu.op_class::SimdAdd                        0      0.00%     66.67% # Class of executed instruction
system.cpu.op_class::SimdAddAcc                     0      0.00%     66.67% # Class of executed instruction
system.cpu.op_class::SimdAlu                        0      0.00%     66.67% # Class of executed instruction
system.cpu.op_class::SimdCmp                        0      0.00%     66.67% # Class of executed instruction
system.cpu.op_class::SimdCvt                        0      0.00%     66.67% # Class of executed instruction
system.cpu.op_class::SimdMisc                       0      0.00%     66.67% # Class of executed instruction
system.cpu.op_class::SimdMult                       0      0.00%     66.67% # Class of executed instruction
system.cpu.op_class::SimdMultAcc                    0      0.00%     66.67% # Class of executed instruction
system.cpu.op_class::SimdShift                      0      0.00%     66.67% # Class of executed instruction
system.cpu.op_class::SimdShiftAcc                   0      0.00%     66.67% # Class of executed instruction
system.cpu.op_class::SimdDiv                        0      0.00%     66.67% # Class of executed instruction
system.cpu.op_class::SimdSqrt                       0      0.00%     66.67% # Class of executed instruction
system.cpu.op_class::SimdFloatAdd                   0      0.00%     66.67% # Class of executed instruction
system.cpu.op_class::SimdFloatAlu                   0      0.00%     66.67% # Class of executed instruction
system.cpu.op_class::SimdFloatCmp                   0      0.00%     66.67% # Class of executed instruction
system.cpu.op_class::SimdFloatCvt                   0      0.00%     66.67% # Class of executed instruction
system.cpu.op_class::SimdFloatDiv                   0      0.00%     66.67% # Class of executed instruction
system.cpu.op_class::SimdFloatMisc                  0      0.00%     66.67% # Class of executed instruction
system.cpu.op_class::SimdFloatMult                  0      0.00%     66.67% # Class of executed instruction
system.cpu.op_class::SimdFloatMultAcc               0      0.00%     66.67% # Class of executed instruction
system.cpu.op_class::SimdFloatSqrt                  0      0.00%     66.67% # Class of executed instruction
system.cpu.op_class::SimdReduceAdd                  0      0.00%     66.67% # Class of executed instruction
system.cpu.op_class::SimdReduceAlu                  0      0.00%     66.67% # Class of executed instruction
system.cpu.op_class::SimdReduceCmp                  0      0.00%     66.67% # Class of executed instruction
system.cpu.op_class::SimdFloatReduceAdd             0      0.00%     66.67% # Class of executed instruction
system.cpu.op_class::SimdFloatReduceCmp             0      0.00%     66.67% # Class of executed instruction
system.cpu.op_class::SimdAes                        0      0.00%     66.67% # Class of executed instruction
system.cpu.op_class::SimdAesMix                     0      0.00%     66.67% # Class of executed instruction
system.cpu.op_class::SimdSha1Hash                   0      0.00%     66.67% # Class of executed instruction
system.cpu.op_class::SimdSha1Hash2                  0      0.00%     66.67% # Class of executed instruction
system.cpu.op_class::SimdSha256Hash                 0      0.00%     66.67% # Class of executed instruction
system.cpu.op_class::SimdSha256Hash2                0      0.00%     66.67% # Class of executed instruction
system.cpu.op_class::SimdShaSigma2                  0      0.00%     66.67% # Class of executed instruction
system.cpu.op_class::SimdShaSigma3                  0      0.00%     66.67% # Class of executed instruction
system.cpu.op_class::SimdPredAlu                    0      0.00%     66.67% # Class of executed instruction
system.cpu.op_class::MemRead                        0      0.00%     66.67% # Class of executed instruction
system.cpu.op_class::MemWrite                       7     33.33%    100.00% # Class of executed instruction
system.cpu.op_class::FloatMemRead                   0      0.00%    100.00% # Class of executed instruction
system.cpu.op_class::FloatMemWrite                  0      0.00%    100.00% # Class of executed instruction
system.cpu.op_class::IprAccess                      0      0.00%    100.00% # Class of executed instruction
system.cpu.op_class::InstPrefetch                   0      0.00%    100.00% # Class of executed instruction
system.cpu.op_class::total                         21                       # Class of executed instruction
system.cpu.workload.numSyscalls                    47                       # Number of system calls
system.membus.snoop_filter.hit_multi_requests            0                       # Number of requests hitting in the snoop filter with multiple (>1) holders of the requested data.
system.membus.snoop_filter.hit_multi_snoops            0                       # Number of snoops hitting in the snoop filter with multiple (>1) holders of the requested data.
system.membus.snoop_filter.hit_single_requests        19122                       # Number of requests hitting in the snoop filter with a single holder of the requested data.
system.membus.snoop_filter.hit_single_snoops            0                       # Number of snoops hitting in the snoop filter with a single holder of the requested data.
system.membus.snoop_filter.tot_requests         38568                       # Total number of requests made to the snoop filter.
system.membus.snoop_filter.tot_snoops               0                       # Total number of snoops made to the snoop filter.
system.switch_cpus.branchPred.BTBCorrect            0                       # Number of correct BTB predictions (this stat may not work properly.
system.switch_cpus.branchPred.BTBHitPct           nan                       # BTB Hit Percentage
system.switch_cpus.branchPred.BTBHits               0                       # Number of BTB hits
system.switch_cpus.branchPred.BTBLookups            0                       # Number of BTB lookups
system.switch_cpus.branchPred.RASInCorrect            5                       # Number of incorrect RAS predictions.
system.switch_cpus.branchPred.condIncorrect        29391                       # Number of conditional branches incorrect
system.switch_cpus.branchPred.condPredicted      1829166                       # Number of conditional branches predicted
system.switch_cpus.branchPred.indirectHits       862422                       # Number of indirect target hits.
system.switch_cpus.branchPred.indirectLookups       883442                       # Number of indirect predictor lookups.
system.switch_cpus.branchPred.indirectMisses        21020                       # Number of indirect misses.
system.switch_cpus.branchPred.lookups         1859862                       # Number of BP lookups
system.switch_cpus.branchPred.usedRAS           14690                       # Number of times the RAS was used to get a target.
system.switch_cpus.branchPredindirectMispredicted         4284                       # Number of mispredicted indirect branches.
system.switch_cpus.cc_regfile_reads           8663255                       # number of cc regfile reads
system.switch_cpus.cc_regfile_writes          7109956                       # number of cc regfile writes
system.switch_cpus.commit.amos                      0                       # Number of atomic instructions committed
system.switch_cpus.commit.branchMispredicts        30052                       # The number of times a branch was mispredicted
system.switch_cpus.commit.branches            1636876                       # Number of branches committed
system.switch_cpus.commit.bw_lim_events       1546321                       # number cycles where commit BW limit reached
system.switch_cpus.commit.commitNonSpecStalls          128                       # The number of times commit has been forced to stall to communicate backwards
system.switch_cpus.commit.commitSquashedInsts      1341273                       # The number of squashed insts skipped by commit
system.switch_cpus.commit.committedInsts     10000004                       # Number of instructions committed
system.switch_cpus.commit.committedOps       18199770                       # Number of ops (including micro ops) committed
system.switch_cpus.commit.committed_per_cycle::samples      7196684                       # Number of insts commited each cycle
system.switch_cpus.commit.committed_per_cycle::mean     2.528911                       # Number of insts commited each cycle
system.switch_cpus.commit.committed_per_cycle::stdev     3.187153                       # Number of insts commited each cycle
system.switch_cpus.commit.committed_per_cycle::underflows            0      0.00%      0.00% # Number of insts commited each cycle
system.switch_cpus.commit.committed_per_cycle::0      3154057     43.83%     43.83% # Number of insts commited each cycle
system.switch_cpus.commit.committed_per_cycle::1      1118136     15.54%     59.36% # Number of insts commited each cycle
system.switch_cpus.commit.committed_per_cycle::2       462073      6.42%     65.78% # Number of insts commited each cycle
system.switch_cpus.commit.committed_per_cycle::3       467098      6.49%     72.27% # Number of insts commited each cycle
system.switch_cpus.commit.committed_per_cycle::4        39681      0.55%     72.83% # Number of insts commited each cycle
system.switch_cpus.commit.committed_per_cycle::5       300498      4.18%     77.00% # Number of insts commited each cycle
system.switch_cpus.commit.committed_per_cycle::6        37328      0.52%     77.52% # Number of insts commited each cycle
system.switch_cpus.commit.committed_per_cycle::7        71492      0.99%     78.51% # Number of insts commited each cycle
system.switch_cpus.commit.committed_per_cycle::8      1546321     21.49%    100.00% # Number of insts commited each cycle
system.switch_cpus.commit.committed_per_cycle::overflows            0      0.00%    100.00% # Number of insts commited each cycle
system.switch_cpus.commit.committed_per_cycle::min_value            0                       # Number of insts commited each cycle
system.switch_cpus.commit.committed_per_cycle::max_value            8                       # Number of insts commited each cycle
system.switch_cpus.commit.committed_per_cycle::total      7196684                       # Number of insts commited each cycle
system.switch_cpus.commit.fp_insts               1051                       # Number of committed floating point instructions.
system.switch_cpus.commit.function_calls        10469                       # Number of function calls committed.
system.switch_cpus.commit.int_insts          18156355                       # Number of committed integer instructions.
system.switch_cpus.commit.loads               4782845                       # Number of loads committed
system.switch_cpus.commit.membars                   0                       # Number of memory barriers committed
system.switch_cpus.commit.op_class_0::No_OpClass        43154      0.24%      0.24% # Class of committed instruction
system.switch_cpus.commit.op_class_0::IntAlu     11480241     63.08%     63.32% # Class of committed instruction
system.switch_cpus.commit.op_class_0::IntMult           80      0.00%     63.32% # Class of committed instruction
system.switch_cpus.commit.op_class_0::IntDiv         1436      0.01%     63.32% # Class of committed instruction
system.switch_cpus.commit.op_class_0::FloatAdd           77      0.00%     63.32% # Class of committed instruction
system.switch_cpus.commit.op_class_0::FloatCmp            0      0.00%     63.32% # Class of committed instruction
system.switch_cpus.commit.op_class_0::FloatCvt          144      0.00%     63.33% # Class of committed instruction
system.switch_cpus.commit.op_class_0::FloatMult            0      0.00%     63.33% # Class of committed instruction
system.switch_cpus.commit.op_class_0::FloatMultAcc            0      0.00%     63.33% # Class of committed instruction
system.switch_cpus.commit.op_class_0::FloatDiv            0      0.00%     63.33% # Class of committed instruction
system.switch_cpus.commit.op_class_0::FloatMisc            0      0.00%     63.33% # Class of committed instruction
system.switch_cpus.commit.op_class_0::FloatSqrt            0      0.00%     63.33% # Class of committed instruction
system.switch_cpus.commit.op_class_0::SimdAdd            0      0.00%     63.33% # Class of committed instruction
system.switch_cpus.commit.op_class_0::SimdAddAcc            0      0.00%     63.33% # Class of committed instruction
system.switch_cpus.commit.op_class_0::SimdAlu           22      0.00%     63.33% # Class of committed instruction
system.switch_cpus.commit.op_class_0::SimdCmp            0      0.00%     63.33% # Class of committed instruction
system.switch_cpus.commit.op_class_0::SimdCvt           64      0.00%     63.33% # Class of committed instruction
system.switch_cpus.commit.op_class_0::SimdMisc           99      0.00%     63.33% # Class of committed instruction
system.switch_cpus.commit.op_class_0::SimdMult            0      0.00%     63.33% # Class of committed instruction
system.switch_cpus.commit.op_class_0::SimdMultAcc            0      0.00%     63.33% # Class of committed instruction
system.switch_cpus.commit.op_class_0::SimdShift            0      0.00%     63.33% # Class of committed instruction
system.switch_cpus.commit.op_class_0::SimdShiftAcc            0      0.00%     63.33% # Class of committed instruction
system.switch_cpus.commit.op_class_0::SimdDiv            0      0.00%     63.33% # Class of committed instruction
system.switch_cpus.commit.op_class_0::SimdSqrt            0      0.00%     63.33% # Class of committed instruction
system.switch_cpus.commit.op_class_0::SimdFloatAdd            0      0.00%     63.33% # Class of committed instruction
system.switch_cpus.commit.op_class_0::SimdFloatAlu            0      0.00%     63.33% # Class of committed instruction
system.switch_cpus.commit.op_class_0::SimdFloatCmp            0      0.00%     63.33% # Class of committed instruction
system.switch_cpus.commit.op_class_0::SimdFloatCvt            0      0.00%     63.33% # Class of committed instruction
system.switch_cpus.commit.op_class_0::SimdFloatDiv            0      0.00%     63.33% # Class of committed instruction
system.switch_cpus.commit.op_class_0::SimdFloatMisc            0      0.00%     63.33% # Class of committed instruction
system.switch_cpus.commit.op_class_0::SimdFloatMult            0      0.00%     63.33% # Class of committed instruction
system.switch_cpus.commit.op_class_0::SimdFloatMultAcc            0      0.00%     63.33% # Class of committed instruction
system.switch_cpus.commit.op_class_0::SimdFloatSqrt            0      0.00%     63.33% # Class of committed instruction
system.switch_cpus.commit.op_class_0::SimdReduceAdd            0      0.00%     63.33% # Class of committed instruction
system.switch_cpus.commit.op_class_0::SimdReduceAlu            0      0.00%     63.33% # Class of committed instruction
system.switch_cpus.commit.op_class_0::SimdReduceCmp            0      0.00%     63.33% # Class of committed instruction
system.switch_cpus.commit.op_class_0::SimdFloatReduceAdd            0      0.00%     63.33% # Class of committed instruction
system.switch_cpus.commit.op_class_0::SimdFloatReduceCmp            0      0.00%     63.33% # Class of committed instruction
system.switch_cpus.commit.op_class_0::SimdAes            0      0.00%     63.33% # Class of committed instruction
system.switch_cpus.commit.op_class_0::SimdAesMix            0      0.00%     63.33% # Class of committed instruction
system.switch_cpus.commit.op_class_0::SimdSha1Hash            0      0.00%     63.33% # Class of committed instruction
system.switch_cpus.commit.op_class_0::SimdSha1Hash2            0      0.00%     63.33% # Class of committed instruction
system.switch_cpus.commit.op_class_0::SimdSha256Hash            0      0.00%     63.33% # Class of committed instruction
system.switch_cpus.commit.op_class_0::SimdSha256Hash2            0      0.00%     63.33% # Class of committed instruction
system.switch_cpus.commit.op_class_0::SimdShaSigma2            0      0.00%     63.33% # Class of committed instruction
system.switch_cpus.commit.op_class_0::SimdShaSigma3            0      0.00%     63.33% # Class of committed instruction
system.switch_cpus.commit.op_class_0::SimdPredAlu            0      0.00%     63.33% # Class of committed instruction
system.switch_cpus.commit.op_class_0::MemRead      4782521     26.28%     89.60% # Class of committed instruction
system.switch_cpus.commit.op_class_0::MemWrite      1891320     10.39%    100.00% # Class of committed instruction
system.switch_cpus.commit.op_class_0::FloatMemRead          324      0.00%    100.00% # Class of committed instruction
system.switch_cpus.commit.op_class_0::FloatMemWrite          288      0.00%    100.00% # Class of committed instruction
system.switch_cpus.commit.op_class_0::IprAccess            0      0.00%    100.00% # Class of committed instruction
system.switch_cpus.commit.op_class_0::InstPrefetch            0      0.00%    100.00% # Class of committed instruction
system.switch_cpus.commit.op_class_0::total     18199770                       # Class of committed instruction
system.switch_cpus.commit.refs                6674453                       # Number of memory references committed
system.switch_cpus.commit.swp_count                 0                       # Number of s/w prefetches committed
system.switch_cpus.commit.vec_insts                 0                       # Number of committed Vector instructions.
system.switch_cpus.committedInsts            10000004                       # Number of Instructions Simulated
system.switch_cpus.committedOps              18199770                       # Number of Ops (including micro ops) Simulated
system.switch_cpus.cpi                       0.753812                       # CPI: Cycles Per Instruction
system.switch_cpus.cpi_total                 0.753812                       # CPI: Total CPI of All Threads
system.switch_cpus.decode.BlockedCycles       3965113                       # Number of cycles decode is blocked
system.switch_cpus.decode.DecodedInsts       19908346                       # Number of instructions handled by decode
system.switch_cpus.decode.IdleCycles           774952                       # Number of cycles decode is idle
system.switch_cpus.decode.RunCycles           1977078                       # Number of cycles decode is running
system.switch_cpus.decode.SquashCycles          31439                       # Number of cycles decode is squashing
system.switch_cpus.decode.UnblockCycles        636143                       # Number of cycles decode is unblocking
system.switch_cpus.dtb.rdAccesses             4942461                       # TLB accesses on read requests
system.switch_cpus.dtb.rdMisses                  2043                       # TLB misses on read requests
system.switch_cpus.dtb.wrAccesses             1953472                       # TLB accesses on write requests
system.switch_cpus.dtb.wrMisses                 17867                       # TLB misses on write requests
system.switch_cpus.fetch.Branches             1859862                       # Number of branches that fetch encountered
system.switch_cpus.fetch.CacheLines           1276569                       # Number of cache lines fetched
system.switch_cpus.fetch.Cycles               5954521                       # Number of cycles fetch has run and was not squashing or blocked
system.switch_cpus.fetch.IcacheSquashes          6076                       # Number of outstanding Icache misses that were squashed
system.switch_cpus.fetch.IcacheWaitRetryStallCycles           37                       # Number of stall cycles due to full MSHR
system.switch_cpus.fetch.Insts               11239070                       # Number of instructions fetch has processed
system.switch_cpus.fetch.MiscStallCycles          696                       # Number of cycles fetch has spent waiting on interrupts, or bad addresses, or out of MSHRs
system.switch_cpus.fetch.PendingQuiesceStallCycles           11                       # Number of stall cycles due to pending quiesce instructions
system.switch_cpus.fetch.PendingTrapStallCycles         4466                       # Number of stall cycles due to pending traps
system.switch_cpus.fetch.SquashCycles           62878                       # Number of cycles fetch has spent squashing
system.switch_cpus.fetch.branchRate          0.246728                       # Number of branch fetches per cycle
system.switch_cpus.fetch.icacheStallCycles      1393557                       # Number of cycles fetch is stalled on an Icache miss
system.switch_cpus.fetch.predictedBranches       877112                       # Number of branches that fetch has predicted taken
system.switch_cpus.fetch.rate                1.490965                       # Number of inst fetches per cycle
system.switch_cpus.fetch.rateDist::samples      7384727                       # Number of instructions fetched each cycle (Total)
system.switch_cpus.fetch.rateDist::mean      2.765560                       # Number of instructions fetched each cycle (Total)
system.switch_cpus.fetch.rateDist::stdev     3.590095                       # Number of instructions fetched each cycle (Total)
system.switch_cpus.fetch.rateDist::underflows            0      0.00%      0.00% # Number of instructions fetched each cycle (Total)
system.switch_cpus.fetch.rateDist::0          4435385     60.06%     60.06% # Number of instructions fetched each cycle (Total)
system.switch_cpus.fetch.rateDist::1            70325      0.95%     61.01% # Number of instructions fetched each cycle (Total)
system.switch_cpus.fetch.rateDist::2            39719      0.54%     61.55% # Number of instructions fetched each cycle (Total)
system.switch_cpus.fetch.rateDist::3           227055      3.07%     64.63% # Number of instructions fetched each cycle (Total)
system.switch_cpus.fetch.rateDist::4            54180      0.73%     65.36% # Number of instructions fetched each cycle (Total)
system.switch_cpus.fetch.rateDist::5           112555      1.52%     66.88% # Number of instructions fetched each cycle (Total)
system.switch_cpus.fetch.rateDist::6           234344      3.17%     70.06% # Number of instructions fetched each cycle (Total)
system.switch_cpus.fetch.rateDist::7           282896      3.83%     73.89% # Number of instructions fetched each cycle (Total)
system.switch_cpus.fetch.rateDist::8          1928268     26.11%    100.00% # Number of instructions fetched each cycle (Total)
system.switch_cpus.fetch.rateDist::overflows            0      0.00%    100.00% # Number of instructions fetched each cycle (Total)
system.switch_cpus.fetch.rateDist::min_value            0                       # Number of instructions fetched each cycle (Total)
system.switch_cpus.fetch.rateDist::max_value            8                       # Number of instructions fetched each cycle (Total)
system.switch_cpus.fetch.rateDist::total      7384727                       # Number of instructions fetched each cycle (Total)
system.switch_cpus.fp_regfile_reads               940                       # number of floating regfile reads
system.switch_cpus.fp_regfile_writes              639                       # number of floating regfile writes
system.switch_cpus.idleCycles                  153392                       # Total number of cycles that the CPU has spent unscheduled due to idling
system.switch_cpus.iew.branchMispredicts        33596                       # Number of branch mispredicts detected at execute
system.switch_cpus.iew.exec_branches          1715107                       # Number of branches executed
system.switch_cpus.iew.exec_nop                     0                       # number of nop insts executed
system.switch_cpus.iew.exec_rate             2.534161                       # Inst execution rate
system.switch_cpus.iew.exec_refs              6908434                       # number of memory reference insts executed
system.switch_cpus.iew.exec_stores            1953471                       # Number of stores executed
system.switch_cpus.iew.exec_swp                     0                       # number of swp insts executed
system.switch_cpus.iew.iewBlockCycles          414751                       # Number of cycles IEW is blocking
system.switch_cpus.iew.iewDispLoadInsts       5032540                       # Number of dispatched load instructions
system.switch_cpus.iew.iewDispNonSpecInsts          207                       # Number of dispatched non-speculative instructions
system.switch_cpus.iew.iewDispSquashedInsts         2341                       # Number of squashed instructions skipped by dispatch
system.switch_cpus.iew.iewDispStoreInsts      2020780                       # Number of dispatched store instructions
system.switch_cpus.iew.iewDispatchedInsts     19542145                       # Number of instructions dispatched to IQ
system.switch_cpus.iew.iewExecLoadInsts       4954963                       # Number of load instructions executed
system.switch_cpus.iew.iewExecSquashedInsts        67264                       # Number of squashed instructions skipped in execute
system.switch_cpus.iew.iewExecutedInsts      19102810                       # Number of executed instructions
system.switch_cpus.iew.iewIQFullEvents           1477                       # Number of times the IQ has become full, causing a stall
system.switch_cpus.iew.iewIdleCycles                0                       # Number of cycles IEW is idle
system.switch_cpus.iew.iewLSQFullEvents        195865                       # Number of times the LSQ has become full, causing a stall
system.switch_cpus.iew.iewSquashCycles          31439                       # Number of cycles IEW is squashing
system.switch_cpus.iew.iewUnblockCycles        199050                       # Number of cycles IEW is unblocking
system.switch_cpus.iew.lsq.thread0.blockedLoads            0                       # Number of blocked loads due to partial load-store forwarding
system.switch_cpus.iew.lsq.thread0.cacheBlocked         3975                       # Number of times an access to memory failed due to the cache being blocked
system.switch_cpus.iew.lsq.thread0.forwLoads      2348785                       # Number of loads that had data forwarded from stores
system.switch_cpus.iew.lsq.thread0.ignoredResponses          767                       # Number of memory responses ignored because the instruction is squashed
system.switch_cpus.iew.lsq.thread0.invAddrLoads            0                       # Number of loads ignored due to an invalid address
system.switch_cpus.iew.lsq.thread0.invAddrSwpfs            0                       # Number of software prefetches ignored due to an invalid address
system.switch_cpus.iew.lsq.thread0.memOrderViolation          507                       # Number of memory ordering violations
system.switch_cpus.iew.lsq.thread0.rescheduledLoads           18                       # Number of loads that were rescheduled
system.switch_cpus.iew.lsq.thread0.squashedLoads       249683                       # Number of loads squashed
system.switch_cpus.iew.lsq.thread0.squashedStores       129169                       # Number of stores squashed
system.switch_cpus.iew.memOrderViolationEvents          507                       # Number of memory order violations
system.switch_cpus.iew.predictedNotTakenIncorrect        16051                       # Number of branches that were predicted not taken incorrectly
system.switch_cpus.iew.predictedTakenIncorrect        17545                       # Number of branches that were predicted taken incorrectly
system.switch_cpus.iew.wb_consumers          21903838                       # num instructions consuming a value
system.switch_cpus.iew.wb_count              19035293                       # cumulative count of insts written-back
system.switch_cpus.iew.wb_fanout             0.680730                       # average fanout of values written-back
system.switch_cpus.iew.wb_producers          14910592                       # num instructions producing a value
system.switch_cpus.iew.wb_rate               2.525205                       # insts written-back per cycle
system.switch_cpus.iew.wb_sent               19066409                       # cumulative count of insts sent to commit
system.switch_cpus.int_regfile_reads         29771370                       # number of integer regfile reads
system.switch_cpus.int_regfile_writes        15383094                       # number of integer regfile writes
system.switch_cpus.ipc                       1.326591                       # IPC: Instructions Per Cycle
system.switch_cpus.ipc_total                 1.326591                       # IPC: Total IPC of All Threads
system.switch_cpus.iq.FU_type_0::No_OpClass        49187      0.26%      0.26% # Type of FU issued
system.switch_cpus.iq.FU_type_0::IntAlu      12181007     63.54%     63.80% # Type of FU issued
system.switch_cpus.iq.FU_type_0::IntMult          125      0.00%     63.80% # Type of FU issued
system.switch_cpus.iq.FU_type_0::IntDiv          1498      0.01%     63.81% # Type of FU issued
system.switch_cpus.iq.FU_type_0::FloatAdd           77      0.00%     63.81% # Type of FU issued
system.switch_cpus.iq.FU_type_0::FloatCmp            0      0.00%     63.81% # Type of FU issued
system.switch_cpus.iq.FU_type_0::FloatCvt          144      0.00%     63.81% # Type of FU issued
system.switch_cpus.iq.FU_type_0::FloatMult            0      0.00%     63.81% # Type of FU issued
system.switch_cpus.iq.FU_type_0::FloatMultAcc            0      0.00%     63.81% # Type of FU issued
system.switch_cpus.iq.FU_type_0::FloatDiv            0      0.00%     63.81% # Type of FU issued
system.switch_cpus.iq.FU_type_0::FloatMisc            0      0.00%     63.81% # Type of FU issued
system.switch_cpus.iq.FU_type_0::FloatSqrt            0      0.00%     63.81% # Type of FU issued
system.switch_cpus.iq.FU_type_0::SimdAdd            0      0.00%     63.81% # Type of FU issued
system.switch_cpus.iq.FU_type_0::SimdAddAcc            0      0.00%     63.81% # Type of FU issued
system.switch_cpus.iq.FU_type_0::SimdAlu           34      0.00%     63.81% # Type of FU issued
system.switch_cpus.iq.FU_type_0::SimdCmp            0      0.00%     63.81% # Type of FU issued
system.switch_cpus.iq.FU_type_0::SimdCvt           74      0.00%     63.81% # Type of FU issued
system.switch_cpus.iq.FU_type_0::SimdMisc          108      0.00%     63.81% # Type of FU issued
system.switch_cpus.iq.FU_type_0::SimdMult            0      0.00%     63.81% # Type of FU issued
system.switch_cpus.iq.FU_type_0::SimdMultAcc            0      0.00%     63.81% # Type of FU issued
system.switch_cpus.iq.FU_type_0::SimdShift            0      0.00%     63.81% # Type of FU issued
system.switch_cpus.iq.FU_type_0::SimdShiftAcc            0      0.00%     63.81% # Type of FU issued
system.switch_cpus.iq.FU_type_0::SimdDiv            0      0.00%     63.81% # Type of FU issued
system.switch_cpus.iq.FU_type_0::SimdSqrt            0      0.00%     63.81% # Type of FU issued
system.switch_cpus.iq.FU_type_0::SimdFloatAdd            0      0.00%     63.81% # Type of FU issued
system.switch_cpus.iq.FU_type_0::SimdFloatAlu            0      0.00%     63.81% # Type of FU issued
system.switch_cpus.iq.FU_type_0::SimdFloatCmp            0      0.00%     63.81% # Type of FU issued
system.switch_cpus.iq.FU_type_0::SimdFloatCvt            0      0.00%     63.81% # Type of FU issued
system.switch_cpus.iq.FU_type_0::SimdFloatDiv            0      0.00%     63.81% # Type of FU issued
system.switch_cpus.iq.FU_type_0::SimdFloatMisc            0      0.00%     63.81% # Type of FU issued
system.switch_cpus.iq.FU_type_0::SimdFloatMult            0      0.00%     63.81% # Type of FU issued
system.switch_cpus.iq.FU_type_0::SimdFloatMultAcc            0      0.00%     63.81% # Type of FU issued
system.switch_cpus.iq.FU_type_0::SimdFloatSqrt            0      0.00%     63.81% # Type of FU issued
system.switch_cpus.iq.FU_type_0::SimdReduceAdd            0      0.00%     63.81% # Type of FU issued
system.switch_cpus.iq.FU_type_0::SimdReduceAlu            0      0.00%     63.81% # Type of FU issued
system.switch_cpus.iq.FU_type_0::SimdReduceCmp            0      0.00%     63.81% # Type of FU issued
system.switch_cpus.iq.FU_type_0::SimdFloatReduceAdd            0      0.00%     63.81% # Type of FU issued
system.switch_cpus.iq.FU_type_0::SimdFloatReduceCmp            0      0.00%     63.81% # Type of FU issued
system.switch_cpus.iq.FU_type_0::SimdAes            0      0.00%     63.81% # Type of FU issued
system.switch_cpus.iq.FU_type_0::SimdAesMix            0      0.00%     63.81% # Type of FU issued
system.switch_cpus.iq.FU_type_0::SimdSha1Hash            0      0.00%     63.81% # Type of FU issued
system.switch_cpus.iq.FU_type_0::SimdSha1Hash2            0      0.00%     63.81% # Type of FU issued
system.switch_cpus.iq.FU_type_0::SimdSha256Hash            0      0.00%     63.81% # Type of FU issued
system.switch_cpus.iq.FU_type_0::SimdSha256Hash2            0      0.00%     63.81% # Type of FU issued
system.switch_cpus.iq.FU_type_0::SimdShaSigma2            0      0.00%     63.81% # Type of FU issued
system.switch_cpus.iq.FU_type_0::SimdShaSigma3            0      0.00%     63.81% # Type of FU issued
system.switch_cpus.iq.FU_type_0::SimdPredAlu            0      0.00%     63.81% # Type of FU issued
system.switch_cpus.iq.FU_type_0::MemRead      4978868     25.97%     89.78% # Type of FU issued
system.switch_cpus.iq.FU_type_0::MemWrite      1958304     10.22%    100.00% # Type of FU issued
system.switch_cpus.iq.FU_type_0::FloatMemRead          346      0.00%    100.00% # Type of FU issued
system.switch_cpus.iq.FU_type_0::FloatMemWrite          307      0.00%    100.00% # Type of FU issued
system.switch_cpus.iq.FU_type_0::IprAccess            0      0.00%    100.00% # Type of FU issued
system.switch_cpus.iq.FU_type_0::InstPrefetch            0      0.00%    100.00% # Type of FU issued
system.switch_cpus.iq.FU_type_0::total       19170079                       # Type of FU issued
system.switch_cpus.iq.fp_alu_accesses            1184                       # Number of floating point alu accesses
system.switch_cpus.iq.fp_inst_queue_reads         2316                       # Number of floating instruction queue reads
system.switch_cpus.iq.fp_inst_queue_wakeup_accesses         1102                       # Number of floating instruction queue wakeup accesses
system.switch_cpus.iq.fp_inst_queue_writes         1271                       # Number of floating instruction queue writes
system.switch_cpus.iq.fu_busy_cnt               81290                       # FU busy when requested
system.switch_cpus.iq.fu_busy_rate           0.004240                       # FU busy rate (busy events/executed inst)
system.switch_cpus.iq.fu_full::No_OpClass            0      0.00%      0.00% # attempts to use FU when none available
system.switch_cpus.iq.fu_full::IntAlu           55338     68.07%     68.07% # attempts to use FU when none available
system.switch_cpus.iq.fu_full::IntMult              0      0.00%     68.07% # attempts to use FU when none available
system.switch_cpus.iq.fu_full::IntDiv               0      0.00%     68.07% # attempts to use FU when none available
system.switch_cpus.iq.fu_full::FloatAdd             0      0.00%     68.07% # attempts to use FU when none available
system.switch_cpus.iq.fu_full::FloatCmp             0      0.00%     68.07% # attempts to use FU when none available
system.switch_cpus.iq.fu_full::FloatCvt             0      0.00%     68.07% # attempts to use FU when none available
system.switch_cpus.iq.fu_full::FloatMult            0      0.00%     68.07% # attempts to use FU when none available
system.switch_cpus.iq.fu_full::FloatMultAcc            0      0.00%     68.07% # attempts to use FU when none available
system.switch_cpus.iq.fu_full::FloatDiv             0      0.00%     68.07% # attempts to use FU when none available
system.switch_cpus.iq.fu_full::FloatMisc            0      0.00%     68.07% # attempts to use FU when none available
system.switch_cpus.iq.fu_full::FloatSqrt            0      0.00%     68.07% # attempts to use FU when none available
system.switch_cpus.iq.fu_full::SimdAdd              0      0.00%     68.07% # attempts to use FU when none available
system.switch_cpus.iq.fu_full::SimdAddAcc            0      0.00%     68.07% # attempts to use FU when none available
system.switch_cpus.iq.fu_full::SimdAlu              2      0.00%     68.08% # attempts to use FU when none available
system.switch_cpus.iq.fu_full::SimdCmp              0      0.00%     68.08% # attempts to use FU when none available
system.switch_cpus.iq.fu_full::SimdCvt              0      0.00%     68.08% # attempts to use FU when none available
system.switch_cpus.iq.fu_full::SimdMisc             0      0.00%     68.08% # attempts to use FU when none available
system.switch_cpus.iq.fu_full::SimdMult             0      0.00%     68.08% # attempts to use FU when none available
system.switch_cpus.iq.fu_full::SimdMultAcc            0      0.00%     68.08% # attempts to use FU when none available
system.switch_cpus.iq.fu_full::SimdShift            0      0.00%     68.08% # attempts to use FU when none available
system.switch_cpus.iq.fu_full::SimdShiftAcc            0      0.00%     68.08% # attempts to use FU when none available
system.switch_cpus.iq.fu_full::SimdDiv              0      0.00%     68.08% # attempts to use FU when none available
system.switch_cpus.iq.fu_full::SimdSqrt             0      0.00%     68.08% # attempts to use FU when none available
system.switch_cpus.iq.fu_full::SimdFloatAdd            0      0.00%     68.08% # attempts to use FU when none available
system.switch_cpus.iq.fu_full::SimdFloatAlu            0      0.00%     68.08% # attempts to use FU when none available
system.switch_cpus.iq.fu_full::SimdFloatCmp            0      0.00%     68.08% # attempts to use FU when none available
system.switch_cpus.iq.fu_full::SimdFloatCvt            0      0.00%     68.08% # attempts to use FU when none available
system.switch_cpus.iq.fu_full::SimdFloatDiv            0      0.00%     68.08% # attempts to use FU when none available
system.switch_cpus.iq.fu_full::SimdFloatMisc            0      0.00%     68.08% # attempts to use FU when none available
system.switch_cpus.iq.fu_full::SimdFloatMult            0      0.00%     68.08% # attempts to use FU when none available
system.switch_cpus.iq.fu_full::SimdFloatMultAcc            0      0.00%     68.08% # attempts to use FU when none available
system.switch_cpus.iq.fu_full::SimdFloatSqrt            0      0.00%     68.08% # attempts to use FU when none available
system.switch_cpus.iq.fu_full::SimdReduceAdd            0      0.00%     68.08% # attempts to use FU when none available
system.switch_cpus.iq.fu_full::SimdReduceAlu            0      0.00%     68.08% # attempts to use FU when none available
system.switch_cpus.iq.fu_full::SimdReduceCmp            0      0.00%     68.08% # attempts to use FU when none available
system.switch_cpus.iq.fu_full::SimdFloatReduceAdd            0      0.00%     68.08% # attempts to use FU when none available
system.switch_cpus.iq.fu_full::SimdFloatReduceCmp            0      0.00%     68.08% # attempts to use FU when none available
system.switch_cpus.iq.fu_full::SimdAes              0      0.00%     68.08% # attempts to use FU when none available
system.switch_cpus.iq.fu_full::SimdAesMix            0      0.00%     68.08% # attempts to use FU when none available
system.switch_cpus.iq.fu_full::SimdSha1Hash            0      0.00%     68.08% # attempts to use FU when none available
system.switch_cpus.iq.fu_full::SimdSha1Hash2            0      0.00%     68.08% # attempts to use FU when none available
system.switch_cpus.iq.fu_full::SimdSha256Hash            0      0.00%     68.08% # attempts to use FU when none available
system.switch_cpus.iq.fu_full::SimdSha256Hash2            0      0.00%     68.08% # attempts to use FU when none available
system.switch_cpus.iq.fu_full::SimdShaSigma2            0      0.00%     68.08% # attempts to use FU when none available
system.switch_cpus.iq.fu_full::SimdShaSigma3            0      0.00%     68.08% # attempts to use FU when none available
system.switch_cpus.iq.fu_full::SimdPredAlu            0      0.00%     68.08% # attempts to use FU when none available
system.switch_cpus.iq.fu_full::MemRead          20728     25.50%     93.58% # attempts to use FU when none available
system.switch_cpus.iq.fu_full::MemWrite          5167      6.36%     99.93% # attempts to use FU when none available
system.switch_cpus.iq.fu_full::FloatMemRead           37      0.05%     99.98% # attempts to use FU when none available
system.switch_cpus.iq.fu_full::FloatMemWrite           18      0.02%    100.00% # attempts to use FU when none available
system.switch_cpus.iq.fu_full::IprAccess            0      0.00%    100.00% # attempts to use FU when none available
system.switch_cpus.iq.fu_full::InstPrefetch            0      0.00%    100.00% # attempts to use FU when none available
system.switch_cpus.iq.int_alu_accesses       19200998                       # Number of integer alu accesses
system.switch_cpus.iq.int_inst_queue_reads     45807612                       # Number of integer instruction queue reads
system.switch_cpus.iq.int_inst_queue_wakeup_accesses     19034191                       # Number of integer instruction queue wakeup accesses
system.switch_cpus.iq.int_inst_queue_writes     20883697                       # Number of integer instruction queue writes
system.switch_cpus.iq.iqInstsAdded           19541833                       # Number of instructions added to the IQ (excludes non-spec)
system.switch_cpus.iq.iqInstsIssued          19170079                       # Number of instructions issued
system.switch_cpus.iq.iqNonSpecInstsAdded          312                       # Number of non-speculative instructions added to the IQ
system.switch_cpus.iq.iqSquashedInstsExamined      1342339                       # Number of squashed instructions iterated over during squash; mainly for profiling
system.switch_cpus.iq.iqSquashedInstsIssued         3758                       # Number of squashed instructions issued
system.switch_cpus.iq.iqSquashedNonSpecRemoved          184                       # Number of squashed non-spec instructions that were removed
system.switch_cpus.iq.iqSquashedOperandsExamined      1604202                       # Number of squashed operands that are examined and possibly removed from graph
system.switch_cpus.iq.issued_per_cycle::samples      7384727                       # Number of insts issued each cycle
system.switch_cpus.iq.issued_per_cycle::mean     2.595909                       # Number of insts issued each cycle
system.switch_cpus.iq.issued_per_cycle::stdev     2.493972                       # Number of insts issued each cycle
system.switch_cpus.iq.issued_per_cycle::underflows            0      0.00%      0.00% # Number of insts issued each cycle
system.switch_cpus.iq.issued_per_cycle::0      2471892     33.47%     33.47% # Number of insts issued each cycle
system.switch_cpus.iq.issued_per_cycle::1       649714      8.80%     42.27% # Number of insts issued each cycle
system.switch_cpus.iq.issued_per_cycle::2       880410     11.92%     54.19% # Number of insts issued each cycle
system.switch_cpus.iq.issued_per_cycle::3       733832      9.94%     64.13% # Number of insts issued each cycle
system.switch_cpus.iq.issued_per_cycle::4       859549     11.64%     75.77% # Number of insts issued each cycle
system.switch_cpus.iq.issued_per_cycle::5       575822      7.80%     83.57% # Number of insts issued each cycle
system.switch_cpus.iq.issued_per_cycle::6       558561      7.56%     91.13% # Number of insts issued each cycle
system.switch_cpus.iq.issued_per_cycle::7       350199      4.74%     95.87% # Number of insts issued each cycle
system.switch_cpus.iq.issued_per_cycle::8       304748      4.13%    100.00% # Number of insts issued each cycle
system.switch_cpus.iq.issued_per_cycle::overflows            0      0.00%    100.00% # Number of insts issued each cycle
system.switch_cpus.iq.issued_per_cycle::min_value            0                       # Number of insts issued each cycle
system.switch_cpus.iq.issued_per_cycle::max_value            8                       # Number of insts issued each cycle
system.switch_cpus.iq.issued_per_cycle::total      7384727                       # Number of insts issued each cycle
system.switch_cpus.iq.rate                   2.543085                       # Inst issue rate
system.switch_cpus.iq.vec_alu_accesses              0                       # Number of vector alu accesses
system.switch_cpus.iq.vec_inst_queue_reads            0                       # Number of vector instruction queue reads
system.switch_cpus.iq.vec_inst_queue_wakeup_accesses            0                       # Number of vector instruction queue wakeup accesses
system.switch_cpus.iq.vec_inst_queue_writes            0                       # Number of vector instruction queue writes
system.switch_cpus.itb.rdAccesses                   0                       # TLB accesses on read requests
system.switch_cpus.itb.rdMisses                     0                       # TLB misses on read requests
system.switch_cpus.itb.wrAccesses             1277278                       # TLB accesses on write requests
system.switch_cpus.itb.wrMisses                   812                       # TLB misses on write requests
system.switch_cpus.memDep0.conflictingLoads      1105223                       # Number of conflicting loads.
system.switch_cpus.memDep0.conflictingStores       364590                       # Number of conflicting stores.
system.switch_cpus.memDep0.insertedLoads      5032540                       # Number of loads inserted to the mem dependence unit.
system.switch_cpus.memDep0.insertedStores      2020780                       # Number of stores inserted to the mem dependence unit.
system.switch_cpus.misc_regfile_reads        10303154                       # number of misc regfile reads
system.switch_cpus.misc_regfile_writes             82                       # number of misc regfile writes
system.switch_cpus.numCycles                  7538119                       # number of cpu cycles simulated
system.switch_cpus.numWorkItemsCompleted            0                       # number of work items this cpu completed
system.switch_cpus.numWorkItemsStarted              0                       # number of work items this cpu started
system.switch_cpus.rename.BlockCycles         1185647                       # Number of cycles rename is blocking
system.switch_cpus.rename.CommittedMaps      21474218                       # Number of HB maps that are committed
system.switch_cpus.rename.IQFullEvents         146705                       # Number of times rename has blocked due to IQ full
system.switch_cpus.rename.IdleCycles          1127146                       # Number of cycles rename is idle
system.switch_cpus.rename.LQFullEvents         374733                       # Number of times rename has blocked due to LQ full
system.switch_cpus.rename.ROBFullEvents          9845                       # Number of times rename has blocked due to ROB full
system.switch_cpus.rename.RenameLookups      50700414                       # Number of register rename lookups that rename has made
system.switch_cpus.rename.RenamedInsts       19763454                       # Number of instructions processed by rename
system.switch_cpus.rename.RenamedOperands     23430176                       # Number of destination operands rename has renamed
system.switch_cpus.rename.RunCycles           2255189                       # Number of cycles rename is running
system.switch_cpus.rename.SQFullEvents        2105544                       # Number of times rename has blocked due to SQ full
system.switch_cpus.rename.SquashCycles          31439                       # Number of cycles rename is squashing
system.switch_cpus.rename.UnblockCycles       2779053                       # Number of cycles rename is unblocking
system.switch_cpus.rename.UndoneMaps          1955901                       # Number of HB maps that are undone due to squashing
system.switch_cpus.rename.fp_rename_lookups         1029                       # Number of floating rename lookups
system.switch_cpus.rename.int_rename_lookups     31006219                       # Number of integer rename lookups
system.switch_cpus.rename.serializeStallCycles         6252                       # count of cycles rename stalled for serializing inst
system.switch_cpus.rename.serializingInsts          184                       # count of serializing insts renamed
system.switch_cpus.rename.skidInsts           4058482                       # count of insts added to the skid buffer
system.switch_cpus.rename.tempSerializingInsts          158                       # count of temporary serializing insts renamed
system.switch_cpus.rob.rob_reads             25179368                       # The number of ROB reads
system.switch_cpus.rob.rob_writes            39271034                       # The number of ROB writes
system.switch_cpus.timesIdled                    2077                       # Number of times that the entire CPU went into an idle state and unscheduled itself
system.tol2bus.snoop_filter.hit_multi_requests            3                       # Number of requests hitting in the snoop filter with multiple (>1) holders of the requested data.
system.tol2bus.snoop_filter.hit_multi_snoops            2                       # Number of snoops hitting in the snoop filter with multiple (>1) holders of the requested data.
system.tol2bus.snoop_filter.hit_single_requests        40056                       # Number of requests hitting in the snoop filter with a single holder of the requested data.
system.tol2bus.snoop_filter.hit_single_snoops        15500                       # Number of snoops hitting in the snoop filter with a single holder of the requested data.
system.tol2bus.snoop_filter.tot_requests        80240                       # Total number of requests made to the snoop filter.
system.tol2bus.snoop_filter.tot_snoops          15502                       # Total number of snoops made to the snoop filter.
system.membus.trans_dist::ReadResp              11401                       # Transaction distribution
system.membus.trans_dist::WritebackDirty         8111                       # Transaction distribution
system.membus.trans_dist::CleanEvict            11010                       # Transaction distribution
system.membus.trans_dist::ReadExReq              8046                       # Transaction distribution
system.membus.trans_dist::ReadExResp             8046                       # Transaction distribution
system.membus.trans_dist::ReadSharedReq         11401                       # Transaction distribution
system.membus.pkt_count_system.l2.mem_side::system.mem_ctrls.port        58015                       # Packet count per connected master and slave (bytes)
system.membus.pkt_count_system.l2.mem_side::total        58015                       # Packet count per connected master and slave (bytes)
system.membus.pkt_count::total                  58015                       # Packet count per connected master and slave (bytes)
system.membus.pkt_size_system.l2.mem_side::system.mem_ctrls.port      1763712                       # Cumulative packet size per connected master and slave (bytes)
system.membus.pkt_size_system.l2.mem_side::total      1763712                       # Cumulative packet size per connected master and slave (bytes)
system.membus.pkt_size::total                 1763712                       # Cumulative packet size per connected master and slave (bytes)
system.membus.snoops                                0                       # Total snoops (count)
system.membus.snoopTraffic                          0                       # Total snoop traffic (bytes)
system.membus.snoop_fanout::samples             19447                       # Request fanout histogram
system.membus.snoop_fanout::mean                    0                       # Request fanout histogram
system.membus.snoop_fanout::stdev                   0                       # Request fanout histogram
system.membus.snoop_fanout::underflows              0      0.00%      0.00% # Request fanout histogram
system.membus.snoop_fanout::0                   19447    100.00%    100.00% # Request fanout histogram
system.membus.snoop_fanout::1                       0      0.00%    100.00% # Request fanout histogram
system.membus.snoop_fanout::overflows               0      0.00%    100.00% # Request fanout histogram
system.membus.snoop_fanout::min_value               0                       # Request fanout histogram
system.membus.snoop_fanout::max_value               0                       # Request fanout histogram
system.membus.snoop_fanout::total               19447                       # Request fanout histogram
system.membus.reqLayer2.occupancy            76376500                       # Layer occupancy (ticks)
system.membus.reqLayer2.utilization               2.0                       # Layer utilization (%)
system.membus.respLayer1.occupancy          102683750                       # Layer occupancy (ticks)
system.membus.respLayer1.utilization              2.7                       # Layer utilization (%)
system.membus.power_state.pwrStateResidencyTicks::UNDEFINED   3769070000                       # Cumulative time (in ticks) in various power states
system.switch_cpus.dtb.walker.power_state.pwrStateResidencyTicks::UNDEFINED   3769070000                       # Cumulative time (in ticks) in various power states
system.switch_cpus.itb.walker.power_state.pwrStateResidencyTicks::UNDEFINED   3769070000                       # Cumulative time (in ticks) in various power states
system.switch_cpus.power_state.pwrStateResidencyTicks::OFF   3769070000                       # Cumulative time (in ticks) in various power states
system.tol2bus.trans_dist::ReadResp             22127                       # Transaction distribution
system.tol2bus.trans_dist::WritebackDirty        31316                       # Transaction distribution
system.tol2bus.trans_dist::WritebackClean         3366                       # Transaction distribution
system.tol2bus.trans_dist::CleanEvict           32880                       # Transaction distribution
system.tol2bus.trans_dist::ReadExReq            18057                       # Transaction distribution
system.tol2bus.trans_dist::ReadExResp           18057                       # Transaction distribution
system.tol2bus.trans_dist::ReadCleanReq          3430                       # Transaction distribution
system.tol2bus.trans_dist::ReadSharedReq        18697                       # Transaction distribution
system.tol2bus.pkt_count_system.cpu.icache.mem_side::system.l2.cpu_side        10226                       # Packet count per connected master and slave (bytes)
system.tol2bus.pkt_count_system.cpu.dcache.mem_side::system.l2.cpu_side       110198                       # Packet count per connected master and slave (bytes)
system.tol2bus.pkt_count::total                120424                       # Packet count per connected master and slave (bytes)
system.tol2bus.pkt_size_system.cpu.icache.mem_side::system.l2.cpu_side       434944                       # Cumulative packet size per connected master and slave (bytes)
system.tol2bus.pkt_size_system.cpu.dcache.mem_side::system.l2.cpu_side      3837376                       # Cumulative packet size per connected master and slave (bytes)
system.tol2bus.pkt_size::total                4272320                       # Cumulative packet size per connected master and slave (bytes)
system.tol2bus.snoops                           27506                       # Total snoops (count)
system.tol2bus.snoopTraffic                    519104                       # Total snoop traffic (bytes)
system.tol2bus.snoop_fanout::samples            67690                       # Request fanout histogram
system.tol2bus.snoop_fanout::mean            0.229088                       # Request fanout histogram
system.tol2bus.snoop_fanout::stdev           0.420320                       # Request fanout histogram
system.tol2bus.snoop_fanout::underflows             0      0.00%      0.00% # Request fanout histogram
system.tol2bus.snoop_fanout::0                  52185     77.09%     77.09% # Request fanout histogram
system.tol2bus.snoop_fanout::1                  15503     22.90%    100.00% # Request fanout histogram
system.tol2bus.snoop_fanout::2                      2      0.00%    100.00% # Request fanout histogram
system.tol2bus.snoop_fanout::3                      0      0.00%    100.00% # Request fanout histogram
system.tol2bus.snoop_fanout::4                      0      0.00%    100.00% # Request fanout histogram
system.tol2bus.snoop_fanout::overflows              0      0.00%    100.00% # Request fanout histogram
system.tol2bus.snoop_fanout::min_value              0                       # Request fanout histogram
system.tol2bus.snoop_fanout::max_value              2                       # Request fanout histogram
system.tol2bus.snoop_fanout::total              67690                       # Request fanout histogram
system.tol2bus.reqLayer0.occupancy           66689000                       # Layer occupancy (ticks)
system.tol2bus.reqLayer0.utilization              1.8                       # Layer utilization (%)
system.tol2bus.respLayer1.occupancy          55129996                       # Layer occupancy (ticks)
system.tol2bus.respLayer1.utilization             1.5                       # Layer utilization (%)
system.tol2bus.respLayer0.occupancy           5143996                       # Layer occupancy (ticks)
system.tol2bus.respLayer0.utilization             0.1                       # Layer utilization (%)
system.tol2bus.power_state.pwrStateResidencyTicks::UNDEFINED   3769070000                       # Cumulative time (in ticks) in various power states
system.voltage_domain.voltage                       1                       # Voltage in Volts
system.clk_domain.clock                          1000                       # Clock period in ticks
system.l2.demand_hits::.switch_cpus.inst         1493                       # number of demand (read+write) hits
system.l2.demand_hits::.switch_cpus.data        19242                       # number of demand (read+write) hits
system.l2.demand_hits::total                    20735                       # number of demand (read+write) hits
system.l2.overall_hits::.switch_cpus.inst         1493                       # number of overall hits
system.l2.overall_hits::.switch_cpus.data        19242                       # number of overall hits
system.l2.overall_hits::total                   20735                       # number of overall hits
system.l2.demand_misses::.cpu.inst                  2                       # number of demand (read+write) misses
system.l2.demand_misses::.cpu.data                  2                       # number of demand (read+write) misses
system.l2.demand_misses::.switch_cpus.inst         1935                       # number of demand (read+write) misses
system.l2.demand_misses::.switch_cpus.data        17510                       # number of demand (read+write) misses
system.l2.demand_misses::total                  19449                       # number of demand (read+write) misses
system.l2.overall_misses::.cpu.inst                 2                       # number of overall misses
system.l2.overall_misses::.cpu.data                 2                       # number of overall misses
system.l2.overall_misses::.switch_cpus.inst         1935                       # number of overall misses
system.l2.overall_misses::.switch_cpus.data        17510                       # number of overall misses
system.l2.overall_misses::total                 19449                       # number of overall misses
system.l2.demand_miss_latency::.switch_cpus.inst    156131000                       # number of demand (read+write) miss cycles
system.l2.demand_miss_latency::.switch_cpus.data   1361992000                       # number of demand (read+write) miss cycles
system.l2.demand_miss_latency::total       1518123000                       # number of demand (read+write) miss cycles
system.l2.overall_miss_latency::.switch_cpus.inst    156131000                       # number of overall miss cycles
system.l2.overall_miss_latency::.switch_cpus.data   1361992000                       # number of overall miss cycles
system.l2.overall_miss_latency::total      1518123000                       # number of overall miss cycles
system.l2.demand_accesses::.cpu.inst                2                       # number of demand (read+write) accesses
system.l2.demand_accesses::.cpu.data                2                       # number of demand (read+write) accesses
system.l2.demand_accesses::.switch_cpus.inst         3428                       # number of demand (read+write) accesses
system.l2.demand_accesses::.switch_cpus.data        36752                       # number of demand (read+write) accesses
system.l2.demand_accesses::total                40184                       # number of demand (read+write) accesses
system.l2.overall_accesses::.cpu.inst               2                       # number of overall (read+write) accesses
system.l2.overall_accesses::.cpu.data               2                       # number of overall (read+write) accesses
system.l2.overall_accesses::.switch_cpus.inst         3428                       # number of overall (read+write) accesses
system.l2.overall_accesses::.switch_cpus.data        36752                       # number of overall (read+write) accesses
system.l2.overall_accesses::total               40184                       # number of overall (read+write) accesses
system.l2.demand_miss_rate::.cpu.inst               1                       # miss rate for demand accesses
system.l2.demand_miss_rate::.cpu.data               1                       # miss rate for demand accesses
system.l2.demand_miss_rate::.switch_cpus.inst     0.564469                       # miss rate for demand accesses
system.l2.demand_miss_rate::.switch_cpus.data     0.476437                       # miss rate for demand accesses
system.l2.demand_miss_rate::total            0.483999                       # miss rate for demand accesses
system.l2.overall_miss_rate::.cpu.inst              1                       # miss rate for overall accesses
system.l2.overall_miss_rate::.cpu.data              1                       # miss rate for overall accesses
system.l2.overall_miss_rate::.switch_cpus.inst     0.564469                       # miss rate for overall accesses
system.l2.overall_miss_rate::.switch_cpus.data     0.476437                       # miss rate for overall accesses
system.l2.overall_miss_rate::total           0.483999                       # miss rate for overall accesses
system.l2.demand_avg_miss_latency::.switch_cpus.inst 80687.855297                       # average overall miss latency
system.l2.demand_avg_miss_latency::.switch_cpus.data 77783.666476                       # average overall miss latency
system.l2.demand_avg_miss_latency::total 78056.609594                       # average overall miss latency
system.l2.overall_avg_miss_latency::.switch_cpus.inst 80687.855297                       # average overall miss latency
system.l2.overall_avg_miss_latency::.switch_cpus.data 77783.666476                       # average overall miss latency
system.l2.overall_avg_miss_latency::total 78056.609594                       # average overall miss latency
system.l2.blocked_cycles::no_mshrs                  0                       # number of cycles access was blocked
system.l2.blocked_cycles::no_targets                0                       # number of cycles access was blocked
system.l2.blocked::no_mshrs                         0                       # number of cycles access was blocked
system.l2.blocked::no_targets                       0                       # number of cycles access was blocked
system.l2.avg_blocked_cycles::no_mshrs            nan                       # average number of cycles each access was blocked
system.l2.avg_blocked_cycles::no_targets          nan                       # average number of cycles each access was blocked
system.l2.writebacks::.writebacks                8111                       # number of writebacks
system.l2.writebacks::total                      8111                       # number of writebacks
system.l2.demand_mshr_hits::.switch_cpus.inst            1                       # number of demand (read+write) MSHR hits
system.l2.demand_mshr_hits::.switch_cpus.data            1                       # number of demand (read+write) MSHR hits
system.l2.demand_mshr_hits::total                   2                       # number of demand (read+write) MSHR hits
system.l2.overall_mshr_hits::.switch_cpus.inst            1                       # number of overall MSHR hits
system.l2.overall_mshr_hits::.switch_cpus.data            1                       # number of overall MSHR hits
system.l2.overall_mshr_hits::total                  2                       # number of overall MSHR hits
system.l2.demand_mshr_misses::.switch_cpus.inst         1934                       # number of demand (read+write) MSHR misses
system.l2.demand_mshr_misses::.switch_cpus.data        17509                       # number of demand (read+write) MSHR misses
system.l2.demand_mshr_misses::total             19443                       # number of demand (read+write) MSHR misses
system.l2.overall_mshr_misses::.switch_cpus.inst         1934                       # number of overall MSHR misses
system.l2.overall_mshr_misses::.switch_cpus.data        17509                       # number of overall MSHR misses
system.l2.overall_mshr_misses::total            19443                       # number of overall MSHR misses
system.l2.demand_mshr_miss_latency::.switch_cpus.inst    136694500                       # number of demand (read+write) MSHR miss cycles
system.l2.demand_mshr_miss_latency::.switch_cpus.data   1186841500                       # number of demand (read+write) MSHR miss cycles
system.l2.demand_mshr_miss_latency::total   1323536000                       # number of demand (read+write) MSHR miss cycles
system.l2.overall_mshr_miss_latency::.switch_cpus.inst    136694500                       # number of overall MSHR miss cycles
system.l2.overall_mshr_miss_latency::.switch_cpus.data   1186841500                       # number of overall MSHR miss cycles
system.l2.overall_mshr_miss_latency::total   1323536000                       # number of overall MSHR miss cycles
system.l2.demand_mshr_miss_rate::.switch_cpus.inst     0.564177                       # mshr miss rate for demand accesses
system.l2.demand_mshr_miss_rate::.switch_cpus.data     0.476409                       # mshr miss rate for demand accesses
system.l2.demand_mshr_miss_rate::total       0.483849                       # mshr miss rate for demand accesses
system.l2.overall_mshr_miss_rate::.switch_cpus.inst     0.564177                       # mshr miss rate for overall accesses
system.l2.overall_mshr_miss_rate::.switch_cpus.data     0.476409                       # mshr miss rate for overall accesses
system.l2.overall_mshr_miss_rate::total      0.483849                       # mshr miss rate for overall accesses
system.l2.demand_avg_mshr_miss_latency::.switch_cpus.inst 70679.679421                       # average overall mshr miss latency
system.l2.demand_avg_mshr_miss_latency::.switch_cpus.data 67784.653607                       # average overall mshr miss latency
system.l2.demand_avg_mshr_miss_latency::total 68072.622538                       # average overall mshr miss latency
system.l2.overall_avg_mshr_miss_latency::.switch_cpus.inst 70679.679421                       # average overall mshr miss latency
system.l2.overall_avg_mshr_miss_latency::.switch_cpus.data 67784.653607                       # average overall mshr miss latency
system.l2.overall_avg_mshr_miss_latency::total 68072.622538                       # average overall mshr miss latency
system.l2.replacements                          27506                       # number of replacements
system.l2.WritebackDirty_hits::.writebacks        23205                       # number of WritebackDirty hits
system.l2.WritebackDirty_hits::total            23205                       # number of WritebackDirty hits
system.l2.WritebackDirty_accesses::.writebacks        23205                       # number of WritebackDirty accesses(hits+misses)
system.l2.WritebackDirty_accesses::total        23205                       # number of WritebackDirty accesses(hits+misses)
system.l2.WritebackClean_hits::.writebacks         3366                       # number of WritebackClean hits
system.l2.WritebackClean_hits::total             3366                       # number of WritebackClean hits
system.l2.WritebackClean_accesses::.writebacks         3366                       # number of WritebackClean accesses(hits+misses)
system.l2.WritebackClean_accesses::total         3366                       # number of WritebackClean accesses(hits+misses)
system.l2.CleanEvict_mshr_misses::.writebacks         7117                       # number of CleanEvict MSHR misses
system.l2.CleanEvict_mshr_misses::total          7117                       # number of CleanEvict MSHR misses
system.l2.CleanEvict_mshr_miss_rate::.writebacks          inf                       # mshr miss rate for CleanEvict accesses
system.l2.CleanEvict_mshr_miss_rate::total          inf                       # mshr miss rate for CleanEvict accesses
system.l2.ReadExReq_hits::.switch_cpus.data        10011                       # number of ReadExReq hits
system.l2.ReadExReq_hits::total                 10011                       # number of ReadExReq hits
system.l2.ReadExReq_misses::.cpu.data               2                       # number of ReadExReq misses
system.l2.ReadExReq_misses::.switch_cpus.data         8044                       # number of ReadExReq misses
system.l2.ReadExReq_misses::total                8046                       # number of ReadExReq misses
system.l2.ReadExReq_miss_latency::.switch_cpus.data    629583000                       # number of ReadExReq miss cycles
system.l2.ReadExReq_miss_latency::total     629583000                       # number of ReadExReq miss cycles
system.l2.ReadExReq_accesses::.cpu.data             2                       # number of ReadExReq accesses(hits+misses)
system.l2.ReadExReq_accesses::.switch_cpus.data        18055                       # number of ReadExReq accesses(hits+misses)
system.l2.ReadExReq_accesses::total             18057                       # number of ReadExReq accesses(hits+misses)
system.l2.ReadExReq_miss_rate::.cpu.data            1                       # miss rate for ReadExReq accesses
system.l2.ReadExReq_miss_rate::.switch_cpus.data     0.445528                       # miss rate for ReadExReq accesses
system.l2.ReadExReq_miss_rate::total         0.445589                       # miss rate for ReadExReq accesses
system.l2.ReadExReq_avg_miss_latency::.switch_cpus.data 78267.404276                       # average ReadExReq miss latency
system.l2.ReadExReq_avg_miss_latency::total 78247.949292                       # average ReadExReq miss latency
system.l2.ReadExReq_mshr_misses::.switch_cpus.data         8044                       # number of ReadExReq MSHR misses
system.l2.ReadExReq_mshr_misses::total           8044                       # number of ReadExReq MSHR misses
system.l2.ReadExReq_mshr_miss_latency::.switch_cpus.data    549143000                       # number of ReadExReq MSHR miss cycles
system.l2.ReadExReq_mshr_miss_latency::total    549143000                       # number of ReadExReq MSHR miss cycles
system.l2.ReadExReq_mshr_miss_rate::.switch_cpus.data     0.445528                       # mshr miss rate for ReadExReq accesses
system.l2.ReadExReq_mshr_miss_rate::total     0.445478                       # mshr miss rate for ReadExReq accesses
system.l2.ReadExReq_avg_mshr_miss_latency::.switch_cpus.data 68267.404276                       # average ReadExReq mshr miss latency
system.l2.ReadExReq_avg_mshr_miss_latency::total 68267.404276                       # average ReadExReq mshr miss latency
system.l2.ReadCleanReq_hits::.switch_cpus.inst         1493                       # number of ReadCleanReq hits
system.l2.ReadCleanReq_hits::total               1493                       # number of ReadCleanReq hits
system.l2.ReadCleanReq_misses::.cpu.inst            2                       # number of ReadCleanReq misses
[...]
system.cpu.itb_walker_cache.blocked_cycles::no_mshrs            0                       # number of cycles access was blocked
system.cpu.itb_walker_cache.blocked_cycles::no_targets            0                       # number of cycles access was blocked
system.cpu.itb_walker_cache.blocked::no_mshrs            0                       # number of cycles access was blocked
system.cpu.itb_walker_cache.blocked::no_targets            0                       # number of cycles access was blocked
system.cpu.itb_walker_cache.avg_blocked_cycles::no_mshrs          nan                       # average number of cycles each access was blocked
system.cpu.itb_walker_cache.avg_blocked_cycles::no_targets          nan                       # average number of cycles each access was blocked
system.cpu.itb_walker_cache.replacements            0                       # number of replacements
system.cpu.itb_walker_cache.power_state.pwrStateResidencyTicks::UNDEFINED   6928334500                       # Cumulative time (in ticks) in various power states
system.cpu.itb_walker_cache.tags.tagsinuse            0                       # Cycle average of tags in use
system.cpu.itb_walker_cache.tags.total_refs            0                       # Total number of references to valid blocks.
system.cpu.itb_walker_cache.tags.sampled_refs            0                       # Sample count of references to valid blocks.
system.cpu.itb_walker_cache.tags.avg_refs          nan                       # Average number of references to valid blocks.
system.cpu.itb_walker_cache.tags.warmup_cycle            0                       # Cycle when the warmup percentage was hit.
system.cpu.itb_walker_cache.tags.tag_accesses            0                       # Number of tag accesses
system.cpu.itb_walker_cache.tags.data_accesses            0                       # Number of data accesses
system.cpu.itb_walker_cache.tags.power_state.pwrStateResidencyTicks::UNDEFINED   6928334500                       # Cumulative time (in ticks) in various power states
system.cpu.itb.walker.power_state.pwrStateResidencyTicks::UNDEFINED   6928334500                       # Cumulative time (in ticks) in various power states
system.cpu.dtb_walker_cache.blocked_cycles::no_mshrs            0                       # number of cycles access was blocked
system.cpu.dtb_walker_cache.blocked_cycles::no_targets            0                       # number of cycles access was blocked
system.cpu.dtb_walker_cache.blocked::no_mshrs            0                       # number of cycles access was blocked
system.cpu.dtb_walker_cache.blocked::no_targets            0                       # number of cycles access was blocked
system.cpu.dtb_walker_cache.avg_blocked_cycles::no_mshrs          nan                       # average number of cycles each access was blocked
system.cpu.dtb_walker_cache.avg_blocked_cycles::no_targets          nan                       # average number of cycles each access was blocked
system.cpu.dtb_walker_cache.replacements            0                       # number of replacements
system.cpu.dtb_walker_cache.power_state.pwrStateResidencyTicks::UNDEFINED   6928334500                       # Cumulative time (in ticks) in various power states
system.cpu.dtb_walker_cache.tags.tagsinuse            0                       # Cycle average of tags in use
system.cpu.dtb_walker_cache.tags.total_refs            0                       # Total number of references to valid blocks.
system.cpu.dtb_walker_cache.tags.sampled_refs            0                       # Sample count of references to valid blocks.
system.cpu.dtb_walker_cache.tags.avg_refs          nan                       # Average number of references to valid blocks.
system.cpu.dtb_walker_cache.tags.warmup_cycle            0                       # Cycle when the warmup percentage was hit.
system.cpu.dtb_walker_cache.tags.tag_accesses            0                       # Number of tag accesses
system.cpu.dtb_walker_cache.tags.data_accesses            0                       # Number of data accesses
system.cpu.dtb_walker_cache.tags.power_state.pwrStateResidencyTicks::UNDEFINED   6928334500                       # Cumulative time (in ticks) in various power states
system.cpu.dcache.demand_hits::.cpu.data            5                       # number of demand (read+write) hits
system.cpu.dcache.demand_hits::.switch_cpus.data      8809931                       # number of demand (read+write) hits
system.cpu.dcache.demand_hits::total          8809936                       # number of demand (read+write) hits
system.cpu.dcache.overall_hits::.cpu.data            5                       # number of overall hits
system.cpu.dcache.overall_hits::.switch_cpus.data      8809931                       # number of overall hits
system.cpu.dcache.overall_hits::total         8809936                       # number of overall hits
system.cpu.dcache.demand_misses::.cpu.data            2                       # number of demand (read+write) misses
system.cpu.dcache.demand_misses::.switch_cpus.data       141010                       # number of demand (read+write) misses
system.cpu.dcache.demand_misses::total         141012                       # number of demand (read+write) misses
system.cpu.dcache.overall_misses::.cpu.data            2                       # number of overall misses
system.cpu.dcache.overall_misses::.switch_cpus.data       141010                       # number of overall misses
system.cpu.dcache.overall_misses::total        141012                       # number of overall misses
system.cpu.dcache.demand_miss_latency::.switch_cpus.data   7068808160                       # number of demand (read+write) miss cycles
system.cpu.dcache.demand_miss_latency::total   7068808160                       # number of demand (read+write) miss cycles
system.cpu.dcache.overall_miss_latency::.switch_cpus.data   7068808160                       # number of overall miss cycles
system.cpu.dcache.overall_miss_latency::total   7068808160                       # number of overall miss cycles
system.cpu.dcache.demand_accesses::.cpu.data            7                       # number of demand (read+write) accesses
system.cpu.dcache.demand_accesses::.switch_cpus.data      8950941                       # number of demand (read+write) accesses
system.cpu.dcache.demand_accesses::total      8950948                       # number of demand (read+write) accesses
system.cpu.dcache.overall_accesses::.cpu.data            7                       # number of overall (read+write) accesses
system.cpu.dcache.overall_accesses::.switch_cpus.data      8950941                       # number of overall (read+write) accesses
system.cpu.dcache.overall_accesses::total      8950948                       # number of overall (read+write) accesses
system.cpu.dcache.demand_miss_rate::.cpu.data     0.285714                       # miss rate for demand accesses
system.cpu.dcache.demand_miss_rate::.switch_cpus.data     0.015754                       # miss rate for demand accesses
system.cpu.dcache.demand_miss_rate::total     0.015754                       # miss rate for demand accesses
system.cpu.dcache.overall_miss_rate::.cpu.data     0.285714                       # miss rate for overall accesses
system.cpu.dcache.overall_miss_rate::.switch_cpus.data     0.015754                       # miss rate for overall accesses
system.cpu.dcache.overall_miss_rate::total     0.015754                       # miss rate for overall accesses
system.cpu.dcache.demand_avg_miss_latency::.switch_cpus.data 50129.835898                       # average overall miss latency
system.cpu.dcache.demand_avg_miss_latency::total 50129.124897                       # average overall miss latency
system.cpu.dcache.overall_avg_miss_latency::.switch_cpus.data 50129.835898                       # average overall miss latency
system.cpu.dcache.overall_avg_miss_latency::total 50129.124897                       # average overall miss latency
system.cpu.dcache.blocked_cycles::no_mshrs       247185                       # number of cycles access was blocked
system.cpu.dcache.blocked_cycles::no_targets         1016                       # number of cycles access was blocked
system.cpu.dcache.blocked::no_mshrs              9410                       # number of cycles access was blocked
system.cpu.dcache.blocked::no_targets              13                       # number of cycles access was blocked
system.cpu.dcache.avg_blocked_cycles::no_mshrs    26.268332                       # average number of cycles each access was blocked
system.cpu.dcache.avg_blocked_cycles::no_targets    78.153846                       # average number of cycles each access was blocked
system.cpu.dcache.writebacks::.writebacks        45945                       # number of writebacks
system.cpu.dcache.writebacks::total             45945                       # number of writebacks
system.cpu.dcache.demand_mshr_hits::.switch_cpus.data        73269                       # number of demand (read+write) MSHR hits
system.cpu.dcache.demand_mshr_hits::total        73269                       # number of demand (read+write) MSHR hits
system.cpu.dcache.overall_mshr_hits::.switch_cpus.data        73269                       # number of overall MSHR hits
system.cpu.dcache.overall_mshr_hits::total        73269                       # number of overall MSHR hits
system.cpu.dcache.demand_mshr_misses::.switch_cpus.data        67741                       # number of demand (read+write) MSHR misses
system.cpu.dcache.demand_mshr_misses::total        67741                       # number of demand (read+write) MSHR misses
system.cpu.dcache.overall_mshr_misses::.switch_cpus.data        67741                       # number of overall MSHR misses
system.cpu.dcache.overall_mshr_misses::total        67741                       # number of overall MSHR misses
system.cpu.dcache.demand_mshr_miss_latency::.switch_cpus.data   2769615160                       # number of demand (read+write) MSHR miss cycles
system.cpu.dcache.demand_mshr_miss_latency::total   2769615160                       # number of demand (read+write) MSHR miss cycles
system.cpu.dcache.overall_mshr_miss_latency::.switch_cpus.data   2769615160                       # number of overall MSHR miss cycles
system.cpu.dcache.overall_mshr_miss_latency::total   2769615160                       # number of overall MSHR miss cycles
system.cpu.dcache.demand_mshr_miss_rate::.switch_cpus.data     0.007568                       # mshr miss rate for demand accesses
system.cpu.dcache.demand_mshr_miss_rate::total     0.007568                       # mshr miss rate for demand accesses
system.cpu.dcache.overall_mshr_miss_rate::.switch_cpus.data     0.007568                       # mshr miss rate for overall accesses
system.cpu.dcache.overall_mshr_miss_rate::total     0.007568                       # mshr miss rate for overall accesses
system.cpu.dcache.demand_avg_mshr_miss_latency::.switch_cpus.data 40885.359826                       # average overall mshr miss latency
system.cpu.dcache.demand_avg_mshr_miss_latency::total 40885.359826                       # average overall mshr miss latency
system.cpu.dcache.overall_avg_mshr_miss_latency::.switch_cpus.data 40885.359826                       # average overall mshr miss latency
system.cpu.dcache.overall_avg_mshr_miss_latency::total 40885.359826                       # average overall mshr miss latency
system.cpu.dcache.replacements                  67679                       # number of replacements
system.cpu.dcache.ReadReq_hits::.switch_cpus.data      4987221                       # number of ReadReq hits
system.cpu.dcache.ReadReq_hits::total         4987221                       # number of ReadReq hits
system.cpu.dcache.ReadReq_misses::.switch_cpus.data       105029                       # number of ReadReq misses
system.cpu.dcache.ReadReq_misses::total        105029                       # number of ReadReq misses
system.cpu.dcache.ReadReq_miss_latency::.switch_cpus.data   5595435500                       # number of ReadReq miss cycles
system.cpu.dcache.ReadReq_miss_latency::total   5595435500                       # number of ReadReq miss cycles
system.cpu.dcache.ReadReq_accesses::.switch_cpus.data      5092250                       # number of ReadReq accesses(hits+misses)
system.cpu.dcache.ReadReq_accesses::total      5092250                       # number of ReadReq accesses(hits+misses)
system.cpu.dcache.ReadReq_miss_rate::.switch_cpus.data     0.020625                       # miss rate for ReadReq accesses
system.cpu.dcache.ReadReq_miss_rate::total     0.020625                       # miss rate for ReadReq accesses
system.cpu.dcache.ReadReq_avg_miss_latency::.switch_cpus.data 53275.147816                       # average ReadReq miss latency
system.cpu.dcache.ReadReq_avg_miss_latency::total 53275.147816                       # average ReadReq miss latency
system.cpu.dcache.ReadReq_mshr_hits::.switch_cpus.data        73227                       # number of ReadReq MSHR hits
system.cpu.dcache.ReadReq_mshr_hits::total        73227                       # number of ReadReq MSHR hits
system.cpu.dcache.ReadReq_mshr_misses::.switch_cpus.data        31802                       # number of ReadReq MSHR misses
system.cpu.dcache.ReadReq_mshr_misses::total        31802                       # number of ReadReq MSHR misses
system.cpu.dcache.ReadReq_mshr_miss_latency::.switch_cpus.data   1333116000                       # number of ReadReq MSHR miss cycles
system.cpu.dcache.ReadReq_mshr_miss_latency::total   1333116000                       # number of ReadReq MSHR miss cycles
system.cpu.dcache.ReadReq_mshr_miss_rate::.switch_cpus.data     0.006245                       # mshr miss rate for ReadReq accesses
system.cpu.dcache.ReadReq_mshr_miss_rate::total     0.006245                       # mshr miss rate for ReadReq accesses
system.cpu.dcache.ReadReq_avg_mshr_miss_latency::.switch_cpus.data 41919.250362                       # average ReadReq mshr miss latency
system.cpu.dcache.ReadReq_avg_mshr_miss_latency::total 41919.250362                       # average ReadReq mshr miss latency
system.cpu.dcache.WriteReq_hits::.cpu.data            5                       # number of WriteReq hits
system.cpu.dcache.WriteReq_hits::.switch_cpus.data      3822710                       # number of WriteReq hits
system.cpu.dcache.WriteReq_hits::total        3822715                       # number of WriteReq hits
system.cpu.dcache.WriteReq_misses::.cpu.data            2                       # number of WriteReq misses
system.cpu.dcache.WriteReq_misses::.switch_cpus.data        35981                       # number of WriteReq misses
system.cpu.dcache.WriteReq_misses::total        35983                       # number of WriteReq misses
system.cpu.dcache.WriteReq_miss_latency::.switch_cpus.data   1473372660                       # number of WriteReq miss cycles
system.cpu.dcache.WriteReq_miss_latency::total   1473372660                       # number of WriteReq miss cycles
system.cpu.dcache.WriteReq_accesses::.cpu.data            7                       # number of WriteReq accesses(hits+misses)
system.cpu.dcache.WriteReq_accesses::.switch_cpus.data      3858691                       # number of WriteReq accesses(hits+misses)
system.cpu.dcache.WriteReq_accesses::total      3858698                       # number of WriteReq accesses(hits+misses)
system.cpu.dcache.WriteReq_miss_rate::.cpu.data     0.285714                       # miss rate for WriteReq accesses
system.cpu.dcache.WriteReq_miss_rate::.switch_cpus.data     0.009325                       # miss rate for WriteReq accesses
system.cpu.dcache.WriteReq_miss_rate::total     0.009325                       # miss rate for WriteReq accesses
system.cpu.dcache.WriteReq_avg_miss_latency::.switch_cpus.data 40948.630110                       # average WriteReq miss latency
system.cpu.dcache.WriteReq_avg_miss_latency::total 40946.354112                       # average WriteReq miss latency
system.cpu.dcache.WriteReq_mshr_hits::.switch_cpus.data           42                       # number of WriteReq MSHR hits
system.cpu.dcache.WriteReq_mshr_hits::total           42                       # number of WriteReq MSHR hits
system.cpu.dcache.WriteReq_mshr_misses::.switch_cpus.data        35939                       # number of WriteReq MSHR misses
system.cpu.dcache.WriteReq_mshr_misses::total        35939                       # number of WriteReq MSHR misses
system.cpu.dcache.WriteReq_mshr_miss_latency::.switch_cpus.data   1436499160                       # number of WriteReq MSHR miss cycles
system.cpu.dcache.WriteReq_mshr_miss_latency::total   1436499160                       # number of WriteReq MSHR miss cycles
system.cpu.dcache.WriteReq_mshr_miss_rate::.switch_cpus.data     0.009314                       # mshr miss rate for WriteReq accesses
system.cpu.dcache.WriteReq_mshr_miss_rate::total     0.009314                       # mshr miss rate for WriteReq accesses
system.cpu.dcache.WriteReq_avg_mshr_miss_latency::.switch_cpus.data 39970.482206                       # average WriteReq mshr miss latency
system.cpu.dcache.WriteReq_avg_mshr_miss_latency::total 39970.482206                       # average WriteReq mshr miss latency
system.cpu.dcache.power_state.pwrStateResidencyTicks::UNDEFINED   6928334500                       # Cumulative time (in ticks) in various power states
system.cpu.dcache.tags.tagsinuse            63.975539                       # Cycle average of tags in use
system.cpu.dcache.tags.total_refs             8877679                       # Total number of references to valid blocks.
system.cpu.dcache.tags.sampled_refs             67743                       # Sample count of references to valid blocks.
system.cpu.dcache.tags.avg_refs            131.049393                       # Average number of references to valid blocks.
system.cpu.dcache.tags.warmup_cycle              1500                       # Cycle when the warmup percentage was hit.
system.cpu.dcache.tags.occ_blocks::.cpu.data     0.002046                       # Average occupied blocks per requestor
system.cpu.dcache.tags.occ_blocks::.switch_cpus.data    63.973493                       # Average occupied blocks per requestor
system.cpu.dcache.tags.occ_percent::.cpu.data     0.000032                       # Average percentage of cache occupancy
system.cpu.dcache.tags.occ_percent::.switch_cpus.data     0.999586                       # Average percentage of cache occupancy
system.cpu.dcache.tags.occ_percent::total     0.999618                       # Average percentage of cache occupancy
system.cpu.dcache.tags.occ_task_id_blocks::1024           64                       # Occupied blocks per task id
system.cpu.dcache.tags.age_task_id_blocks_1024::0           26                       # Occupied blocks per task id
system.cpu.dcache.tags.age_task_id_blocks_1024::1           38                       # Occupied blocks per task id
system.cpu.dcache.tags.occ_task_id_percent::1024            1                       # Percentage of cache occupancy per task id
system.cpu.dcache.tags.tag_accesses          17969639                       # Number of tag accesses
system.cpu.dcache.tags.data_accesses         17969639                       # Number of data accesses
system.cpu.dcache.tags.power_state.pwrStateResidencyTicks::UNDEFINED   6928334500                       # Cumulative time (in ticks) in various power states
system.cpu.power_state.numTransitions               1                       # Number of power state transitions
system.cpu.power_state.pwrStateResidencyTicks::ON        10500                       # Cumulative time (in ticks) in various power states
system.cpu.power_state.pwrStateResidencyTicks::OFF   6928324000                       # Cumulative time (in ticks) in various power states

---------- End Simulation Statistics   ----------
