
---------- Begin Simulation Statistics ----------
final_tick                                33120604000                       # Number of ticks from beginning of simulation (restored from checkpoints and never reset)
host_inst_rate                                  63822                       # Simulator instruction rate (inst/s)
host_mem_usage                                1051132                       # Number of bytes of host memory used
host_op_rate                                   126785                       # Simulator op (including micro ops) rate (op/s)
host_seconds                                   156.69                       # Real time elapsed on the host
host_tick_rate                              211382691                       # Simulator tick rate (ticks/s)
sim_freq                                 1000000000000                       # Frequency of simulated ticks
sim_insts                                    10000011                       # Number of instructions simulated
sim_ops                                      19865311                       # Number of ops (including micro ops) simulated
sim_seconds                                  0.033121                       # Number of seconds simulated
sim_ticks                                 33120604000                       # Number of ticks simulated
system.cpu.Branches                                 1                       # Number of branches fetched
system.cpu.committedInsts                          10                       # Number of instructions committed
system.cpu.committedOps                            21                       # Number of ops (including micro ops) committed
system.cpu.dtb.rdAccesses                           0                       # TLB accesses on read requests
system.cpu.dtb.rdMisses                             0                       # TLB misses on read requests
system.cpu.dtb.wrAccesses                           7                       # TLB accesses on write requests
system.cpu.dtb.wrMisses                             1                       # TLB misses on write requests
system.cpu.idle_fraction                            0                       # Percentage of idle cycles
system.cpu.itb.rdAccesses                           0                       # TLB accesses on read requests
system.cpu.itb.rdMisses                             0                       # TLB misses on read requests
system.cpu.itb.wrAccesses                          10                       # TLB accesses on write requests
system.cpu.itb.wrMisses                             0                       # TLB misses on write requests
system.cpu.not_idle_fraction                        1                       # Percentage of non-idle cycles
system.cpu.numCycles                               21                       # number of cpu cycles simulated
system.cpu.numWorkItemsCompleted                    0                       # number of work items this cpu completed
system.cpu.numWorkItemsStarted                      0                       # number of work items this cpu started
system.cpu.num_busy_cycles                         21                       # Number of busy cycles
system.cpu.num_cc_register_writes                   2                       # number of times the CC registers were written
system.cpu.num_conditional_control_insts            0                       # number of instructions that are conditional controls
system.cpu.num_fp_alu_accesses                      0                       # Number of float alu accesses
system.cpu.num_fp_insts                             0                       # number of float instructions
system.cpu.num_fp_register_reads                    0                       # number of times the floating registers were read
system.cpu.num_fp_register_writes                   0                       # number of times the floating registers were written
system.cpu.num_func_calls                           1                       # number of times a function call or return occured
system.cpu.num_idle_cycles                          0                       # Number of idle cycles
system.cpu.num_int_alu_accesses                    21                       # Number of integer alu accesses
system.cpu.num_int_insts                           21                       # number of integer instructions
system.cpu.num_int_register_reads                  47                       # number of times the integer registers were read
system.cpu.num_int_register_writes                 13                       # number of times the integer registers were written
system.cpu.num_load_insts                           0                       # Number of load instructions
system.cpu.num_mem_refs                             7                       # number of memory refs
system.cpu.num_store_insts                          7                       # Number of store instructions
system.cpu.num_vec_alu_accesses                     0                       # Number of vector alu accesses
system.cpu.num_vec_insts                            0                       # number of vector instructions
system.cpu.num_vec_register_reads                   0                       # number of times the vector registers were read
system.cpu.num_vec_register_writes                  0                       # number of times the vector registers were written
system.cpu.op_class::No_OpClass                     0      0.00%      0.00% # Class of executed instruction
system.cpu.op_class::IntAlu                        14     66.67%     66.67% # Class of executed instruction
system.cpu.op_class::IntMult                        0      0.00%     66.67% # Class of executed instruction
system.cpu.op_class::IntDiv                         0      0.00%     66.67% # Class of executed instruction
system.cpu.op_class::FloatAdd                       0      0.00%     66.67% # Class of executed instruction
system.cpu.op_class::FloatCmp                       0      0.00%     66.67% # Class of executed instruction
system.cpu.op_class::FloatCvt                       0      0.00%     66.67% # Class of executed instruction
system.cpu.op_class::FloatMult                      0      0.00%     66.67% # Class of executed instruction
system.cpu.op_class::FloatMultAcc                   0      0.00%     66.67% # Class of executed instruction
system.cpu.op_class::FloatDiv                       0      0.00%     66.67% # Class of executed instruction
system.cpu.op_class::FloatMisc                      0      0.00%     66.67% # Class of executed instruction
system.cpu.op_class::FloatSqrt                      0      0.00%     66.67% # Class of executed instruction
system.cpu.op_class::SimdAdd                        0      0.00%     66.67% # Class of executed instruction
system.cpu.op_class::SimdAddAcc                     0      0.00%     66.67% # Class of executed instruction
system.cpu.op_class::SimdAlu                        0      0.00%     66.67% # Class of executed instruction
system.cpu.op_class::SimdCmp                        0      0.00%     66.67% # Class of executed instruction
system.cpu.op_class::SimdCvt                        0      0.00%     66.67% # Class of executed instruction
system.cpu.op_class::SimdMisc                       0      0.00%     66.67% # Class of executed instruction
system.cpu.op_class::SimdMult                       0      0.00%     66.67% # Class of executed instruction
system.cpu.op_class::SimdMultAcc                    0      0.00%     66.67% # Class of executed instruction
system.cpu.op_class::SimdShift                      0      0.00%     66.67% # Class of executed instruction
system.cpu.op_class::SimdShiftAcc                   0      0.00%     66.67% # Class of executed instruction
system.cpu.op_class::SimdDiv                        0      0.00%     66.67% # Class of executed instruction
system.cpu.op_class::SimdSqrt                       0      0.00%     66.67% # Class of executed instruction
system.cpu.op_class::SimdFloatAdd                   0      0.00%     66.67% # Class of executed instruction
system.cpu.op_class::SimdFloatAlu                   0      0.00%     66.67% # Class of executed instruction
system.cpu.op_class::SimdFloatCmp                   0      0.00%     66.67% # Class of executed instruction
system.cpu.op_class::SimdFloatCvt                   0      0.00%     66.67% # Class of executed instruction
system.cpu.op_class::SimdFloatDiv                   0      0.00%     66.67% # Class of executed instruction
system.cpu.op_class::SimdFloatMisc                  0      0.00%     66.67% # Class of executed instruction
system.cpu.op_class::SimdFloatMult                  0      0.00%     66.67% # Class of executed instruction
system.cpu.op_class::SimdFloatMultAcc               0      0.00%     66.67% # Class of executed instruction
system.cpu.op_class::SimdFloatSqrt                  0      0.00%     66.67% # Class of executed instruction
system.cpu.op_class::SimdReduceAdd                  0      0.00%     66.67% # Class of executed instruction
system.cpu.op_class::SimdReduceAlu                  0      0.00%     66.67% # Class of executed instruction
system.cpu.op_class::SimdReduceCmp                  0      0.00%     66.67% # Class of executed instruction
system.cpu.op_class::SimdFloatReduceAdd             0      0.00%     66.67% # Class of executed instruction
system.cpu.op_class::SimdFloatReduceCmp             0      0.00%     66.67% # Class of executed instruction
system.cpu.op_class::SimdAes                        0      0.00%     66.67% # Class of executed instruction
system.cpu.op_class::SimdAesMix                     0      0.00%     66.67% # Class of executed instruction
system.cpu.op_class::SimdSha1Hash                   0      0.00%     66.67% # Class of executed instruction
system.cpu.op_class::SimdSha1Hash2                  0      0.00%     66.67% # Class of executed instruction
system.cpu.op_class::SimdSha256Hash                 0      0.00%     66.67% # Class of executed instruction
system.cpu.op_class::SimdSha256Hash2                0      0.00%     66.67% # Class of executed instruction
system.cpu.op_class::SimdShaSigma2                  0      0.00%     66.67% # Class of executed instruction
system.cpu.op_class::SimdShaSigma3                  0      0.00%     66.67% # Class of executed instruction
system.cpu.op_class::SimdPredAlu                    0      0.00%     66.67% # Class of executed instruction
system.cpu.op_class::MemRead                        0      0.00%     66.67% # Class of executed instruction
system.cpu.op_class::MemWrite                       7     33.33%    100.00% # Class of executed instruction
system.cpu.op_class::FloatMemRead                   0      0.00%    100.00% # Class of executed instruction
system.cpu.op_class::FloatMemWrite                  0      0.00%    100.00% # Class of executed instruction
system.cpu.op_class::IprAccess                      0      0.00%    100.00% # Class of executed instruction
system.cpu.op_class::InstPrefetch                   0      0.00%    100.00% # Class of executed instruction
system.cpu.op_class::total                         21                       # Class of executed instruction
system.cpu.workload.numSyscalls                    40                       # Number of system calls
system.membus.snoop_filter.hit_multi_requests            0                       # Number of requests hitting in the snoop filter with multiple (>1) holders of the requested data.
system.membus.snoop_filter.hit_multi_snoops            0                       # Number of snoops hitting in the snoop filter with multiple (>1) holders of the requested data.
system.membus.snoop_filter.hit_single_requests       384471                       # Number of requests hitting in the snoop filter with a single holder of the requested data.
system.membus.snoop_filter.hit_single_snoops            0                       # Number of snoops hitting in the snoop filter with a single holder of the requested data.
system.membus.snoop_filter.tot_requests        769325                       # Total number of requests made to the snoop filter.
system.membus.snoop_filter.tot_snoops               0                       # Total number of snoops made to the snoop filter.
system.switch_cpus.branchPred.BTBCorrect            0                       # Number of correct BTB predictions (this stat may not work properly.
system.switch_cpus.branchPred.BTBHitPct           nan                       # BTB Hit Percentage
system.switch_cpus.branchPred.BTBHits               0                       # Number of BTB hits
system.switch_cpus.branchPred.BTBLookups            0                       # Number of BTB lookups
system.switch_cpus.branchPred.RASInCorrect            8                       # Number of incorrect RAS predictions.
system.switch_cpus.branchPred.condIncorrect        11287                       # Number of conditional branches incorrect
system.switch_cpus.branchPred.condPredicted      1854285                       # Number of conditional branches predicted
system.switch_cpus.branchPred.indirectHits      1772259                       # Number of indirect target hits.
system.switch_cpus.branchPred.indirectLookups      1795750                       # Number of indirect predictor lookups.
system.switch_cpus.branchPred.indirectMisses        23491                       # Number of indirect misses.
system.switch_cpus.branchPred.lookups         1870766                       # Number of BP lookups
system.switch_cpus.branchPred.usedRAS            8121                       # Number of times the RAS was used to get a target.
system.switch_cpus.branchPredindirectMispredicted         5134                       # Number of mispredicted indirect branches.
system.switch_cpus.cc_regfile_reads           8924155                       # number of cc regfile reads
system.switch_cpus.cc_regfile_writes         10516548                       # number of cc regfile writes
system.switch_cpus.commit.amos                      0                       # Number of atomic instructions committed
system.switch_cpus.commit.branchMispredicts        11712                       # The number of times a branch was mispredicted
system.switch_cpus.commit.branches            1674642                       # Number of branches committed
system.switch_cpus.commit.bw_lim_events       1172898                       # number cycles where commit BW limit reached
system.switch_cpus.commit.commitNonSpecStalls          103                       # The number of times commit has been forced to stall to communicate backwards
system.switch_cpus.commit.commitSquashedInsts      1525133                       # The number of squashed insts skipped by commit
system.switch_cpus.commit.committedInsts     10000001                       # Number of instructions committed
system.switch_cpus.commit.committedOps       19865290                       # Number of ops (including micro ops) committed
system.switch_cpus.commit.committed_per_cycle::samples     65928059                       # Number of insts commited each cycle
system.switch_cpus.commit.committed_per_cycle::mean     0.301318                       # Number of insts commited each cycle
system.switch_cpus.commit.committed_per_cycle::stdev     1.258771                       # Number of insts commited each cycle
system.switch_cpus.commit.committed_per_cycle::underflows            0      0.00%      0.00% # Number of insts commited each cycle
system.switch_cpus.commit.committed_per_cycle::0     60769062     92.17%     92.17% # Number of insts commited each cycle
system.switch_cpus.commit.committed_per_cycle::1      1366764      2.07%     94.25% # Number of insts commited each cycle
system.switch_cpus.commit.committed_per_cycle::2       381952      0.58%     94.83% # Number of insts commited each cycle
system.switch_cpus.commit.committed_per_cycle::3      1012613      1.54%     96.36% # Number of insts commited each cycle
system.switch_cpus.commit.committed_per_cycle::4       830318      1.26%     97.62% # Number of insts commited each cycle
system.switch_cpus.commit.committed_per_cycle::5       378598      0.57%     98.20% # Number of insts commited each cycle
system.switch_cpus.commit.committed_per_cycle::6        11641      0.02%     98.21% # Number of insts commited each cycle
system.switch_cpus.commit.committed_per_cycle::7         4213      0.01%     98.22% # Number of insts commited each cycle
system.switch_cpus.commit.committed_per_cycle::8      1172898      1.78%    100.00% # Number of insts commited each cycle
system.switch_cpus.commit.committed_per_cycle::overflows            0      0.00%    100.00% # Number of insts commited each cycle
system.switch_cpus.commit.committed_per_cycle::min_value            0                       # Number of insts commited each cycle
system.switch_cpus.commit.committed_per_cycle::max_value            8                       # Number of insts commited each cycle
system.switch_cpus.commit.committed_per_cycle::total     65928059                       # Number of insts commited each cycle
system.switch_cpus.commit.fp_insts              45511                       # Number of committed floating point instructions.
system.switch_cpus.commit.function_calls         4591                       # Number of function calls committed.
system.switch_cpus.commit.int_insts          19859856                       # Number of committed integer instructions.
system.switch_cpus.commit.loads               3218625                       # Number of loads committed
system.switch_cpus.commit.membars                   0                       # Number of memory barriers committed
system.switch_cpus.commit.op_class_0::No_OpClass         5227      0.03%      0.03% # Class of committed instruction
system.switch_cpus.commit.op_class_0::IntAlu     14954083     75.28%     75.30% # Class of committed instruction
system.switch_cpus.commit.op_class_0::IntMult        22636      0.11%     75.42% # Class of committed instruction
system.switch_cpus.commit.op_class_0::IntDiv         1744      0.01%     75.43% # Class of committed instruction
system.switch_cpus.commit.op_class_0::FloatAdd           64      0.00%     75.43% # Class of committed instruction
system.switch_cpus.commit.op_class_0::FloatCmp            0      0.00%     75.43% # Class of committed instruction
system.switch_cpus.commit.op_class_0::FloatCvt          112      0.00%     75.43% # Class of committed instruction
system.switch_cpus.commit.op_class_0::FloatMult            0      0.00%     75.43% # Class of committed instruction
system.switch_cpus.commit.op_class_0::FloatMultAcc            0      0.00%     75.43% # Class of committed instruction
system.switch_cpus.commit.op_class_0::FloatDiv            0      0.00%     75.43% # Class of committed instruction
system.switch_cpus.commit.op_class_0::FloatMisc            0      0.00%     75.43% # Class of committed instruction
system.switch_cpus.commit.op_class_0::FloatSqrt            0      0.00%     75.43% # Class of committed instruction
system.switch_cpus.commit.op_class_0::SimdAdd           12      0.00%     75.43% # Class of committed instruction
system.switch_cpus.commit.op_class_0::SimdAddAcc            0      0.00%     75.43% # Class of committed instruction
system.switch_cpus.commit.op_class_0::SimdAlu           25      0.00%     75.43% # Class of committed instruction
system.switch_cpus.commit.op_class_0::SimdCmp            0      0.00%     75.43% # Class of committed instruction
system.switch_cpus.commit.op_class_0::SimdCvt           58      0.00%     75.43% # Class of committed instruction
system.switch_cpus.commit.op_class_0::SimdMisc           67      0.00%     75.43% # Class of committed instruction
system.switch_cpus.commit.op_class_0::SimdMult            0      0.00%     75.43% # Class of committed instruction
system.switch_cpus.commit.op_class_0::SimdMultAcc            0      0.00%     75.43% # Class of committed instruction
system.switch_cpus.commit.op_class_0::SimdShift            4      0.00%     75.43% # Class of committed instruction
system.switch_cpus.commit.op_class_0::SimdShiftAcc            0      0.00%     75.43% # Class of committed instruction
system.switch_cpus.commit.op_class_0::SimdDiv            0      0.00%     75.43% # Class of committed instruction
system.switch_cpus.commit.op_class_0::SimdSqrt            0      0.00%     75.43% # Class of committed instruction
system.switch_cpus.commit.op_class_0::SimdFloatAdd            0      0.00%     75.43% # Class of committed instruction
system.switch_cpus.commit.op_class_0::SimdFloatAlu            0      0.00%     75.43% # Class of committed instruction
system.switch_cpus.commit.op_class_0::SimdFloatCmp            0      0.00%     75.43% # Class of committed instruction
system.switch_cpus.commit.op_class_0::SimdFloatCvt            0      0.00%     75.43% # Class of committed instruction
system.switch_cpus.commit.op_class_0::SimdFloatDiv            0      0.00%     75.43% # Class of committed instruction
system.switch_cpus.commit.op_class_0::SimdFloatMisc            0      0.00%     75.43% # Class of committed instruction
system.switch_cpus.commit.op_class_0::SimdFloatMult            0      0.00%     75.43% # Class of committed instruction
system.switch_cpus.commit.op_class_0::SimdFloatMultAcc            0      0.00%     75.43% # Class of committed instruction
system.switch_cpus.commit.op_class_0::SimdFloatSqrt            0      0.00%     75.43% # Class of committed instruction
system.switch_cpus.commit.op_class_0::SimdReduceAdd            0      0.00%     75.43% # Class of committed instruction
system.switch_cpus.commit.op_class_0::SimdReduceAlu            0      0.00%     75.43% # Class of committed instruction
system.switch_cpus.commit.op_class_0::SimdReduceCmp            0      0.00%     75.43% # Class of committed instruction
system.switch_cpus.commit.op_class_0::SimdFloatReduceAdd            0      0.00%     75.43% # Class of committed instruction
system.switch_cpus.commit.op_class_0::SimdFloatReduceCmp            0      0.00%     75.43% # Class of committed instruction
system.switch_cpus.commit.op_class_0::SimdAes            0      0.00%     75.43% # Class of committed instruction
system.switch_cpus.commit.op_class_0::SimdAesMix            0      0.00%     75.43% # Class of committed instruction
system.switch_cpus.commit.op_class_0::SimdSha1Hash            0      0.00%     75.43% # Class of committed instruction
system.switch_cpus.commit.op_class_0::SimdSha1Hash2            0      0.00%     75.43% # Class of committed instruction
system.switch_cpus.commit.op_class_0::SimdSha256Hash            0      0.00%     75.43% # Class of committed instruction
system.switch_cpus.commit.op_class_0::SimdSha256Hash2            0      0.00%     75.43% # Class of committed instruction
system.switch_cpus.commit.op_class_0::SimdShaSigma2            0      0.00%     75.43% # Class of committed instruction
system.switch_cpus.commit.op_class_0::SimdShaSigma3            0      0.00%     75.43% # Class of committed instruction
system.switch_cpus.commit.op_class_0::SimdPredAlu            0      0.00%     75.43% # Class of committed instruction
system.switch_cpus.commit.op_class_0::MemRead      3218353     16.20%     91.63% # Class of committed instruction
system.switch_cpus.commit.op_class_0::MemWrite      1617751      8.14%     99.77% # Class of committed instruction
system.switch_cpus.commit.op_class_0::FloatMemRead          272      0.00%     99.77% # Class of committed instruction
system.switch_cpus.commit.op_class_0::FloatMemWrite        44882      0.23%    100.00% # Class of committed instruction
system.switch_cpus.commit.op_class_0::IprAccess            0      0.00%    100.00% # Class of committed instruction
system.switch_cpus.commit.op_class_0::InstPrefetch            0      0.00%    100.00% # Class of committed instruction
system.switch_cpus.commit.op_class_0::total     19865290                       # Class of committed instruction
system.switch_cpus.commit.refs                4881258                       # Number of memory references committed
system.switch_cpus.commit.swp_count                 0                       # Number of s/w prefetches committed
system.switch_cpus.commit.vec_insts                 0                       # Number of committed Vector instructions.
system.switch_cpus.committedInsts            10000001                       # Number of Instructions Simulated
system.switch_cpus.committedOps              19865290                       # Number of Ops (including micro ops) Simulated
system.switch_cpus.cpi                       6.624118                       # CPI: Cycles Per Instruction
system.switch_cpus.cpi_total                 6.624118                       # CPI: Total CPI of All Threads
system.switch_cpus.decode.BlockedCycles      62452939                       # Number of cycles decode is blocked
system.switch_cpus.decode.DecodedInsts       21564993                       # Number of instructions handled by decode
system.switch_cpus.decode.IdleCycles           775586                       # Number of cycles decode is idle
system.switch_cpus.decode.RunCycles           1874563                       # Number of cycles decode is running
system.switch_cpus.decode.SquashCycles          17609                       # Number of cycles decode is squashing
system.switch_cpus.decode.UnblockCycles       1010937                       # Number of cycles decode is unblocking
system.switch_cpus.dtb.rdAccesses             3434567                       # TLB accesses on read requests
system.switch_cpus.dtb.rdMisses                  1906                       # TLB misses on read requests
system.switch_cpus.dtb.wrAccesses             1758703                       # TLB accesses on write requests
system.switch_cpus.dtb.wrMisses                 92142                       # TLB misses on write requests
system.switch_cpus.fetch.Branches             1870766                       # Number of branches that fetch encountered
system.switch_cpus.fetch.CacheLines           1008070                       # Number of cache lines fetched
system.switch_cpus.fetch.Cycles              65014613                       # Number of cycles fetch has run and was not squashing or blocked
system.switch_cpus.fetch.IcacheSquashes          3924                       # Number of outstanding Icache misses that were squashed
system.switch_cpus.fetch.IcacheWaitRetryStallCycles           49                       # Number of stall cycles due to full MSHR
system.switch_cpus.fetch.Insts               11077066                       # Number of instructions fetch has processed
system.switch_cpus.fetch.MiscStallCycles          468                       # Number of cycles fetch has spent waiting on interrupts, or bad addresses, or out of MSHRs
system.switch_cpus.fetch.PendingQuiesceStallCycles            6                       # Number of stall cycles due to pending quiesce instructions
system.switch_cpus.fetch.PendingTrapStallCycles         2852                       # Number of stall cycles due to pending traps
system.switch_cpus.fetch.SquashCycles           35218                       # Number of cycles fetch has spent squashing
system.switch_cpus.fetch.branchRate          0.028242                       # Number of branch fetches per cycle
system.switch_cpus.fetch.icacheStallCycles      1096039                       # Number of cycles fetch is stalled on an Icache miss
system.switch_cpus.fetch.predictedBranches      1780380                       # Number of branches that fetch has predicted taken
system.switch_cpus.fetch.rate                0.167223                       # Number of inst fetches per cycle
system.switch_cpus.fetch.rateDist::samples     66131636                       # Number of instructions fetched each cycle (Total)
system.switch_cpus.fetch.rateDist::mean      0.331713                       # Number of instructions fetched each cycle (Total)
system.switch_cpus.fetch.rateDist::stdev     1.431055                       # Number of instructions fetched each cycle (Total)
system.switch_cpus.fetch.rateDist::underflows            0      0.00%      0.00% # Number of instructions fetched each cycle (Total)
system.switch_cpus.fetch.rateDist::0         62032762     93.80%     93.80% # Number of instructions fetched each cycle (Total)
system.switch_cpus.fetch.rateDist::1           399804      0.60%     94.41% # Number of instructions fetched each cycle (Total)
system.switch_cpus.fetch.rateDist::2            21110      0.03%     94.44% # Number of instructions fetched each cycle (Total)
system.switch_cpus.fetch.rateDist::3           469303      0.71%     95.15% # Number of instructions fetched each cycle (Total)
system.switch_cpus.fetch.rateDist::4          1322483      2.00%     97.15% # Number of instructions fetched each cycle (Total)
system.switch_cpus.fetch.rateDist::5            79833      0.12%     97.27% # Number of instructions fetched each cycle (Total)
system.switch_cpus.fetch.rateDist::6            17468      0.03%     97.29% # Number of instructions fetched each cycle (Total)
system.switch_cpus.fetch.rateDist::7            18087      0.03%     97.32% # Number of instructions fetched each cycle (Total)
system.switch_cpus.fetch.rateDist::8          1770786      2.68%    100.00% # Number of instructions fetched each cycle (Total)
system.switch_cpus.fetch.rateDist::overflows            0      0.00%    100.00% # Number of instructions fetched each cycle (Total)
system.switch_cpus.fetch.rateDist::min_value            0                       # Number of instructions fetched each cycle (Total)
system.switch_cpus.fetch.rateDist::max_value            8                       # Number of instructions fetched each cycle (Total)
system.switch_cpus.fetch.rateDist::total     66131636                       # Number of instructions fetched each cycle (Total)
system.switch_cpus.fp_regfile_reads             45529                       # number of floating regfile reads
system.switch_cpus.fp_regfile_writes              617                       # number of floating regfile writes
system.switch_cpus.idleCycles                  109551                       # Total number of cycles that the CPU has spent unscheduled due to idling
system.switch_cpus.iew.branchMispredicts        14355                       # Number of branch mispredicts detected at execute
system.switch_cpus.iew.exec_branches          1786495                       # Number of branches executed
system.switch_cpus.iew.exec_nop                     0                       # number of nop insts executed
system.switch_cpus.iew.exec_rate             0.320419                       # Inst execution rate
system.switch_cpus.iew.exec_refs              5196637                       # number of memory reference insts executed
system.switch_cpus.iew.exec_stores            1758700                       # Number of stores executed
system.switch_cpus.iew.exec_swp                     0                       # number of swp insts executed
system.switch_cpus.iew.iewBlockCycles          322593                       # Number of cycles IEW is blocking
system.switch_cpus.iew.iewDispLoadInsts       3459730                       # Number of dispatched load instructions
system.switch_cpus.iew.iewDispNonSpecInsts          161                       # Number of dispatched non-speculative instructions
system.switch_cpus.iew.iewDispSquashedInsts         1084                       # Number of squashed instructions skipped by dispatch
system.switch_cpus.iew.iewDispStoreInsts      1771391                       # Number of dispatched store instructions
system.switch_cpus.iew.iewDispatchedInsts     21391700                       # Number of instructions dispatched to IQ
system.switch_cpus.iew.iewExecLoadInsts       3437937                       # Number of load instructions executed
system.switch_cpus.iew.iewExecSquashedInsts        21513                       # Number of squashed instructions skipped in execute
system.switch_cpus.iew.iewExecutedInsts      21224915                       # Number of executed instructions
system.switch_cpus.iew.iewIQFullEvents           1245                       # Number of times the IQ has become full, causing a stall
system.switch_cpus.iew.iewIdleCycles                0                       # Number of cycles IEW is idle
system.switch_cpus.iew.iewLSQFullEvents        488984                       # Number of times the LSQ has become full, causing a stall
system.switch_cpus.iew.iewSquashCycles          17609                       # Number of cycles IEW is squashing
system.switch_cpus.iew.iewUnblockCycles        491019                       # Number of cycles IEW is unblocking
system.switch_cpus.iew.lsq.thread0.blockedLoads            0                       # Number of blocked loads due to partial load-store forwarding
system.switch_cpus.iew.lsq.thread0.cacheBlocked          927                       # Number of times an access to memory failed due to the cache being blocked
system.switch_cpus.iew.lsq.thread0.forwLoads        11819                       # Number of loads that had data forwarded from stores
system.switch_cpus.iew.lsq.thread0.ignoredResponses          106                       # Number of memory responses ignored because the instruction is squashed
system.switch_cpus.iew.lsq.thread0.invAddrLoads            0                       # Number of loads ignored due to an invalid address
system.switch_cpus.iew.lsq.thread0.invAddrSwpfs            0                       # Number of software prefetches ignored due to an invalid address
system.switch_cpus.iew.lsq.thread0.memOrderViolation          114                       # Number of memory ordering violations
system.switch_cpus.iew.lsq.thread0.rescheduledLoads            8                       # Number of loads that were rescheduled
system.switch_cpus.iew.lsq.thread0.squashedLoads       241097                       # Number of loads squashed
system.switch_cpus.iew.lsq.thread0.squashedStores       108756                       # Number of stores squashed
system.switch_cpus.iew.memOrderViolationEvents          114                       # Number of memory order violations
system.switch_cpus.iew.predictedNotTakenIncorrect        11760                       # Number of branches that were predicted not taken incorrectly
system.switch_cpus.iew.predictedTakenIncorrect         2595                       # Number of branches that were predicted taken incorrectly
system.switch_cpus.iew.wb_consumers          18135088                       # num instructions consuming a value
system.switch_cpus.iew.wb_count              21121186                       # cumulative count of insts written-back
system.switch_cpus.iew.wb_fanout             0.816251                       # average fanout of values written-back
system.switch_cpus.iew.wb_producers          14802786                       # num instructions producing a value
system.switch_cpus.iew.wb_rate               0.318853                       # insts written-back per cycle
system.switch_cpus.iew.wb_sent               21213047                       # cumulative count of insts sent to commit
system.switch_cpus.int_regfile_reads         26715437                       # number of integer regfile reads
system.switch_cpus.int_regfile_writes        17686230                       # number of integer regfile writes
system.switch_cpus.ipc                       0.150963                       # IPC: Instructions Per Cycle
system.switch_cpus.ipc_total                 0.150963                       # IPC: Total IPC of All Threads
system.switch_cpus.iq.FU_type_0::No_OpClass         9437      0.04%      0.04% # Type of FU issued
system.switch_cpus.iq.FU_type_0::IntAlu      16008887     75.35%     75.39% # Type of FU issued
system.switch_cpus.iq.FU_type_0::IntMult        22810      0.11%     75.50% # Type of FU issued
system.switch_cpus.iq.FU_type_0::IntDiv          1874      0.01%     75.51% # Type of FU issued
system.switch_cpus.iq.FU_type_0::FloatAdd           76      0.00%     75.51% # Type of FU issued
system.switch_cpus.iq.FU_type_0::FloatCmp            0      0.00%     75.51% # Type of FU issued
system.switch_cpus.iq.FU_type_0::FloatCvt          126      0.00%     75.51% # Type of FU issued
system.switch_cpus.iq.FU_type_0::FloatMult            0      0.00%     75.51% # Type of FU issued
system.switch_cpus.iq.FU_type_0::FloatMultAcc            0      0.00%     75.51% # Type of FU issued
system.switch_cpus.iq.FU_type_0::FloatDiv            0      0.00%     75.51% # Type of FU issued
system.switch_cpus.iq.FU_type_0::FloatMisc            0      0.00%     75.51% # Type of FU issued
system.switch_cpus.iq.FU_type_0::FloatSqrt            0      0.00%     75.51% # Type of FU issued
system.switch_cpus.iq.FU_type_0::SimdAdd           16      0.00%     75.51% # Type of FU issued
system.switch_cpus.iq.FU_type_0::SimdAddAcc            0      0.00%     75.51% # Type of FU issued
system.switch_cpus.iq.FU_type_0::SimdAlu           67      0.00%     75.51% # Type of FU issued
system.switch_cpus.iq.FU_type_0::SimdCmp            0      0.00%     75.51% # Type of FU issued
system.switch_cpus.iq.FU_type_0::SimdCvt           72      0.00%     75.51% # Type of FU issued
system.switch_cpus.iq.FU_type_0::SimdMisc           96      0.00%     75.51% # Type of FU issued
system.switch_cpus.iq.FU_type_0::SimdMult            0      0.00%     75.51% # Type of FU issued
system.switch_cpus.iq.FU_type_0::SimdMultAcc            0      0.00%     75.51% # Type of FU issued
system.switch_cpus.iq.FU_type_0::SimdShift           13      0.00%     75.51% # Type of FU issued
system.switch_cpus.iq.FU_type_0::SimdShiftAcc            0      0.00%     75.51% # Type of FU issued
system.switch_cpus.iq.FU_type_0::SimdDiv            0      0.00%     75.51% # Type of FU issued
system.switch_cpus.iq.FU_type_0::SimdSqrt            0      0.00%     75.51% # Type of FU issued
system.switch_cpus.iq.FU_type_0::SimdFloatAdd            0      0.00%     75.51% # Type of FU issued
system.switch_cpus.iq.FU_type_0::SimdFloatAlu            0      0.00%     75.51% # Type of FU issued
system.switch_cpus.iq.FU_type_0::SimdFloatCmp            0      0.00%     75.51% # Type of FU issued
system.switch_cpus.iq.FU_type_0::SimdFloatCvt            0      0.00%     75.51% # Type of FU issued
system.switch_cpus.iq.FU_type_0::SimdFloatDiv            0      0.00%     75.51% # Type of FU issued
system.switch_cpus.iq.FU_type_0::SimdFloatMisc            0      0.00%     75.51% # Type of FU issued
system.switch_cpus.iq.FU_type_0::SimdFloatMult            0      0.00%     75.51% # Type of FU issued
system.switch_cpus.iq.FU_type_0::SimdFloatMultAcc            0      0.00%     75.51% # Type of FU issued
system.switch_cpus.iq.FU_type_0::SimdFloatSqrt            0      0.00%     75.51% # Type of FU issued
system.switch_cpus.iq.FU_type_0::SimdReduceAdd            0      0.00%     75.51% # Type of FU issued
system.switch_cpus.iq.FU_type_0::SimdReduceAlu            0      0.00%     75.51% # Type of FU issued
system.switch_cpus.iq.FU_type_0::SimdReduceCmp            0      0.00%     75.51% # Type of FU issued
system.switch_cpus.iq.FU_type_0::SimdFloatReduceAdd            0      0.00%     75.51% # Type of FU issued
system.switch_cpus.iq.FU_type_0::SimdFloatReduceCmp            0      0.00%     75.51% # Type of FU issued
system.switch_cpus.iq.FU_type_0::SimdAes            0      0.00%     75.51% # Type of FU issued
system.switch_cpus.iq.FU_type_0::SimdAesMix            0      0.00%     75.51% # Type of FU issued
system.switch_cpus.iq.FU_type_0::SimdSha1Hash            0      0.00%     75.51% # Type of FU issued
system.switch_cpus.iq.FU_type_0::SimdSha1Hash2            0      0.00%     75.51% # Type of FU issued
system.switch_cpus.iq.FU_type_0::SimdSha256Hash            0      0.00%     75.51% # Type of FU issued
system.switch_cpus.iq.FU_type_0::SimdSha256Hash2            0      0.00%     75.51% # Type of FU issued
system.switch_cpus.iq.FU_type_0::SimdShaSigma2            0      0.00%     75.51% # Type of FU issued
system.switch_cpus.iq.FU_type_0::SimdShaSigma3            0      0.00%     75.51% # Type of FU issued
system.switch_cpus.iq.FU_type_0::SimdPredAlu            0      0.00%     75.51% # Type of FU issued
system.switch_cpus.iq.FU_type_0::MemRead      3441837     16.20%     91.71% # Type of FU issued
system.switch_cpus.iq.FU_type_0::MemWrite      1715899      8.08%     99.79% # Type of FU issued
system.switch_cpus.iq.FU_type_0::FloatMemRead          333      0.00%     99.79% # Type of FU issued
system.switch_cpus.iq.FU_type_0::FloatMemWrite        44887      0.21%    100.00% # Type of FU issued
system.switch_cpus.iq.FU_type_0::IprAccess            0      0.00%    100.00% # Type of FU issued
system.switch_cpus.iq.FU_type_0::InstPrefetch            0      0.00%    100.00% # Type of FU issued
system.switch_cpus.iq.FU_type_0::total       21246430                       # Type of FU issued
system.switch_cpus.iq.fp_alu_accesses           45746                       # Number of floating point alu accesses
system.switch_cpus.iq.fp_inst_queue_reads        91454                       # Number of floating instruction queue reads
system.switch_cpus.iq.fp_inst_queue_wakeup_accesses        45626                       # Number of floating instruction queue wakeup accesses
system.switch_cpus.iq.fp_inst_queue_writes        46383                       # Number of floating instruction queue writes
system.switch_cpus.iq.fu_busy_cnt               35716                       # FU busy when requested
system.switch_cpus.iq.fu_busy_rate           0.001681                       # FU busy rate (busy events/executed inst)
system.switch_cpus.iq.fu_full::No_OpClass            0      0.00%      0.00% # attempts to use FU when none available
system.switch_cpus.iq.fu_full::IntAlu           33179     92.90%     92.90% # attempts to use FU when none available
system.switch_cpus.iq.fu_full::IntMult              0      0.00%     92.90% # attempts to use FU when none available
system.switch_cpus.iq.fu_full::IntDiv               0      0.00%     92.90% # attempts to use FU when none available
system.switch_cpus.iq.fu_full::FloatAdd             0      0.00%     92.90% # attempts to use FU when none available
system.switch_cpus.iq.fu_full::FloatCmp             0      0.00%     92.90% # attempts to use FU when none available
system.switch_cpus.iq.fu_full::FloatCvt             0      0.00%     92.90% # attempts to use FU when none available
system.switch_cpus.iq.fu_full::FloatMult            0      0.00%     92.90% # attempts to use FU when none available
system.switch_cpus.iq.fu_full::FloatMultAcc            0      0.00%     92.90% # attempts to use FU when none available
system.switch_cpus.iq.fu_full::FloatDiv             0      0.00%     92.90% # attempts to use FU when none available
system.switch_cpus.iq.fu_full::FloatMisc            0      0.00%     92.90% # attempts to use FU when none available
system.switch_cpus.iq.fu_full::FloatSqrt            0      0.00%     92.90% # attempts to use FU when none available
system.switch_cpus.iq.fu_full::SimdAdd              0      0.00%     92.90% # attempts to use FU when none available
system.switch_cpus.iq.fu_full::SimdAddAcc            0      0.00%     92.90% # attempts to use FU when none available
system.switch_cpus.iq.fu_full::SimdAlu              2      0.01%     92.90% # attempts to use FU when none available
system.switch_cpus.iq.fu_full::SimdCmp              0      0.00%     92.90% # attempts to use FU when none available
system.switch_cpus.iq.fu_full::SimdCvt              0      0.00%     92.90% # attempts to use FU when none available
system.switch_cpus.iq.fu_full::SimdMisc             0      0.00%     92.90% # attempts to use FU when none available
system.switch_cpus.iq.fu_full::SimdMult             0      0.00%     92.90% # attempts to use FU when none available
system.switch_cpus.iq.fu_full::SimdMultAcc            0      0.00%     92.90% # attempts to use FU when none available
system.switch_cpus.iq.fu_full::SimdShift            2      0.01%     92.91% # attempts to use FU when none available
system.switch_cpus.iq.fu_full::SimdShiftAcc            0      0.00%     92.91% # attempts to use FU when none available
system.switch_cpus.iq.fu_full::SimdDiv              0      0.00%     92.91% # attempts to use FU when none available
system.switch_cpus.iq.fu_full::SimdSqrt             0      0.00%     92.91% # attempts to use FU when none available
system.switch_cpus.iq.fu_full::SimdFloatAdd            0      0.00%     92.91% # attempts to use FU when none available
system.switch_cpus.iq.fu_full::SimdFloatAlu            0      0.00%     92.91% # attempts to use FU when none available
system.switch_cpus.iq.fu_full::SimdFloatCmp            0      0.00%     92.91% # attempts to use FU when none available
system.switch_cpus.iq.fu_full::SimdFloatCvt            0      0.00%     92.91% # attempts to use FU when none available
system.switch_cpus.iq.fu_full::SimdFloatDiv            0      0.00%     92.91% # attempts to use FU when none available
system.switch_cpus.iq.fu_full::SimdFloatMisc            0      0.00%     92.91% # attempts to use FU when none available
system.switch_cpus.iq.fu_full::SimdFloatMult            0      0.00%     92.91% # attempts to use FU when none available
system.switch_cpus.iq.fu_full::SimdFloatMultAcc            0      0.00%     92.91% # attempts to use FU when none available
system.switch_cpus.iq.fu_full::SimdFloatSqrt            0      0.00%     92.91% # attempts to use FU when none available
system.switch_cpus.iq.fu_full::SimdReduceAdd            0      0.00%     92.91% # attempts to use FU when none available
system.switch_cpus.iq.fu_full::SimdReduceAlu            0      0.00%     92.91% # attempts to use FU when none available
system.switch_cpus.iq.fu_full::SimdReduceCmp            0      0.00%     92.91% # attempts to use FU when none available
system.switch_cpus.iq.fu_full::SimdFloatReduceAdd            0      0.00%     92.91% # attempts to use FU when none available
system.switch_cpus.iq.fu_full::SimdFloatReduceCmp            0      0.00%     92.91% # attempts to use FU when none available
system.switch_cpus.iq.fu_full::SimdAes              0      0.00%     92.91% # attempts to use FU when none available
system.switch_cpus.iq.fu_full::SimdAesMix            0      0.00%     92.91% # attempts to use FU when none available
system.switch_cpus.iq.fu_full::SimdSha1Hash            0      0.00%     92.91% # attempts to use FU when none available
system.switch_cpus.iq.fu_full::SimdSha1Hash2            0      0.00%     92.91% # attempts to use FU when none available
system.switch_cpus.iq.fu_full::SimdSha256Hash            0      0.00%     92.91% # attempts to use FU when none available
system.switch_cpus.iq.fu_full::SimdSha256Hash2            0      0.00%     92.91% # attempts to use FU when none available
system.switch_cpus.iq.fu_full::SimdShaSigma2            0      0.00%     92.91% # attempts to use FU when none available
system.switch_cpus.iq.fu_full::SimdShaSigma3            0      0.00%     92.91% # attempts to use FU when none available
system.switch_cpus.iq.fu_full::SimdPredAlu            0      0.00%     92.91% # attempts to use FU when none available
system.switch_cpus.iq.fu_full::MemRead           1479      4.14%     97.05% # attempts to use FU when none available
system.switch_cpus.iq.fu_full::MemWrite          1016      2.84%     99.89% # attempts to use FU when none available
system.switch_cpus.iq.fu_full::FloatMemRead           29      0.08%     99.97% # attempts to use FU when none available
system.switch_cpus.iq.fu_full::FloatMemWrite            9      0.03%    100.00% # attempts to use FU when none available
system.switch_cpus.iq.fu_full::IprAccess            0      0.00%    100.00% # attempts to use FU when none available
system.switch_cpus.iq.fu_full::InstPrefetch            0      0.00%    100.00% # attempts to use FU when none available
system.switch_cpus.iq.int_alu_accesses       21226963                       # Number of integer alu accesses
system.switch_cpus.iq.int_inst_queue_reads    108572127                       # Number of integer instruction queue reads
system.switch_cpus.iq.int_inst_queue_wakeup_accesses     21075560                       # Number of integer instruction queue wakeup accesses
system.switch_cpus.iq.int_inst_queue_writes     22871727                       # Number of integer instruction queue writes
system.switch_cpus.iq.iqInstsAdded           21391489                       # Number of instructions added to the IQ (excludes non-spec)
system.switch_cpus.iq.iqInstsIssued          21246430                       # Number of instructions issued
system.switch_cpus.iq.iqNonSpecInstsAdded          211                       # Number of non-speculative instructions added to the IQ
system.switch_cpus.iq.iqSquashedInstsExamined      1526315                       # Number of squashed instructions iterated over during squash; mainly for profiling
system.switch_cpus.iq.iqSquashedInstsIssued         3371                       # Number of squashed instructions issued
system.switch_cpus.iq.iqSquashedNonSpecRemoved          108                       # Number of squashed non-spec instructions that were removed
system.switch_cpus.iq.iqSquashedOperandsExamined       975072                       # Number of squashed operands that are examined and possibly removed from graph
system.switch_cpus.iq.issued_per_cycle::samples     66131636                       # Number of insts issued each cycle
system.switch_cpus.iq.issued_per_cycle::mean     0.321275                       # Number of insts issued each cycle
system.switch_cpus.iq.issued_per_cycle::stdev     1.232585                       # Number of insts issued each cycle
system.switch_cpus.iq.issued_per_cycle::underflows            0      0.00%      0.00% # Number of insts issued each cycle
system.switch_cpus.iq.issued_per_cycle::0     60541200     91.55%     91.55% # Number of insts issued each cycle
system.switch_cpus.iq.issued_per_cycle::1      1233729      1.87%     93.41% # Number of insts issued each cycle
system.switch_cpus.iq.issued_per_cycle::2       843221      1.28%     94.69% # Number of insts issued each cycle
system.switch_cpus.iq.issued_per_cycle::3       533478      0.81%     95.49% # Number of insts issued each cycle
system.switch_cpus.iq.issued_per_cycle::4       485150      0.73%     96.23% # Number of insts issued each cycle
system.switch_cpus.iq.issued_per_cycle::5      1102556      1.67%     97.89% # Number of insts issued each cycle
system.switch_cpus.iq.issued_per_cycle::6       722778      1.09%     98.99% # Number of insts issued each cycle
system.switch_cpus.iq.issued_per_cycle::7       420415      0.64%     99.62% # Number of insts issued each cycle
system.switch_cpus.iq.issued_per_cycle::8       249109      0.38%    100.00% # Number of insts issued each cycle
system.switch_cpus.iq.issued_per_cycle::overflows            0      0.00%    100.00% # Number of insts issued each cycle
system.switch_cpus.iq.issued_per_cycle::min_value            0                       # Number of insts issued each cycle
system.switch_cpus.iq.issued_per_cycle::max_value            8                       # Number of insts issued each cycle
system.switch_cpus.iq.issued_per_cycle::total     66131636                       # Number of insts issued each cycle
system.switch_cpus.iq.rate                   0.320743                       # Inst issue rate
system.switch_cpus.iq.vec_alu_accesses              0                       # Number of vector alu accesses
system.switch_cpus.iq.vec_inst_queue_reads            0                       # Number of vector instruction queue reads
system.switch_cpus.iq.vec_inst_queue_wakeup_accesses            0                       # Number of vector instruction queue wakeup accesses
system.switch_cpus.iq.vec_inst_queue_writes            0                       # Number of vector instruction queue writes
system.switch_cpus.itb.rdAccesses                   0                       # TLB accesses on read requests
system.switch_cpus.itb.rdMisses                     0                       # TLB misses on read requests
system.switch_cpus.itb.wrAccesses             1008523                       # TLB accesses on write requests
system.switch_cpus.itb.wrMisses                   580                       # TLB misses on write requests
system.switch_cpus.memDep0.conflictingLoads       168148                       # Number of conflicting loads.
system.switch_cpus.memDep0.conflictingStores       124314                       # Number of conflicting stores.
system.switch_cpus.memDep0.insertedLoads      3459730                       # Number of loads inserted to the mem dependence unit.
system.switch_cpus.memDep0.insertedStores      1771391                       # Number of stores inserted to the mem dependence unit.
system.switch_cpus.misc_regfile_reads         8795392                       # number of misc regfile reads
system.switch_cpus.misc_regfile_writes             64                       # number of misc regfile writes
system.switch_cpus.numCycles                 66241187                       # number of cpu cycles simulated
system.switch_cpus.numWorkItemsCompleted            0                       # number of work items this cpu completed
system.switch_cpus.numWorkItemsStarted              0                       # number of work items this cpu started
system.switch_cpus.rename.BlockCycles         4913823                       # Number of cycles rename is blocking
system.switch_cpus.rename.CommittedMaps      26447881                       # Number of HB maps that are committed
system.switch_cpus.rename.IQFullEvents          74324                       # Number of times rename has blocked due to IQ full
system.switch_cpus.rename.IdleCycles          1188928                       # Number of cycles rename is idle
system.switch_cpus.rename.LQFullEvents          14726                       # Number of times rename has blocked due to LQ full
system.switch_cpus.rename.ROBFullEvents         14332                       # Number of times rename has blocked due to ROB full
system.switch_cpus.rename.RenameLookups      45270975                       # Number of register rename lookups that rename has made
system.switch_cpus.rename.RenamedInsts       21472863                       # Number of instructions processed by rename
system.switch_cpus.rename.RenamedOperands     28545653                       # Number of destination operands rename has renamed
system.switch_cpus.rename.RunCycles           2461267                       # Number of cycles rename is running
system.switch_cpus.rename.SQFullEvents       57053426                       # Number of times rename has blocked due to SQ full
system.switch_cpus.rename.SquashCycles          17609                       # Number of cycles rename is squashing
system.switch_cpus.rename.UnblockCycles      57543796                       # Number of cycles rename is unblocking
system.switch_cpus.rename.UndoneMaps          2097612                       # Number of HB maps that are undone due to squashing
system.switch_cpus.rename.fp_rename_lookups        46299                       # Number of floating rename lookups
system.switch_cpus.rename.int_rename_lookups     27178923                       # Number of integer rename lookups
system.switch_cpus.rename.serializeStallCycles         6212                       # count of cycles rename stalled for serializing inst
system.switch_cpus.rename.serializingInsts          176                       # count of serializing insts renamed
system.switch_cpus.rename.skidInsts           5546168                       # count of insts added to the skid buffer
system.switch_cpus.rename.tempSerializingInsts          151                       # count of temporary serializing insts renamed
system.switch_cpus.rob.rob_reads             86070028                       # The number of ROB reads
system.switch_cpus.rob.rob_writes            42985290                       # The number of ROB writes
system.switch_cpus.timesIdled                    1682                       # Number of times that the entire CPU went into an idle state and unscheduled itself
system.tol2bus.snoop_filter.hit_multi_requests            1                       # Number of requests hitting in the snoop filter with multiple (>1) holders of the requested data.
system.tol2bus.snoop_filter.hit_multi_snoops            0                       # Number of snoops hitting in the snoop filter with multiple (>1) holders of the requested data.
system.tol2bus.snoop_filter.hit_single_requests       390997                       # Number of requests hitting in the snoop filter with a single holder of the requested data.
system.tol2bus.snoop_filter.hit_single_snoops       383758                       # Number of snoops hitting in the snoop filter with a single holder of the requested data.
system.tol2bus.snoop_filter.tot_requests       782122                       # Total number of requests made to the snoop filter.
system.tol2bus.snoop_filter.tot_snoops         383758                       # Total number of snoops made to the snoop filter.
system.membus.trans_dist::ReadResp               6197                       # Transaction distribution
system.membus.trans_dist::WritebackDirty       378972                       # Transaction distribution
system.membus.trans_dist::CleanEvict             5499                       # Transaction distribution
system.membus.trans_dist::ReadExReq            378657                       # Transaction distribution
system.membus.trans_dist::ReadExResp           378657                       # Transaction distribution
system.membus.trans_dist::ReadSharedReq          6197                       # Transaction distribution
system.membus.pkt_count_system.l2.mem_side::system.mem_ctrls.port      1154179                       # Packet count per connected master and slave (bytes)
system.membus.pkt_count_system.l2.mem_side::total      1154179                       # Packet count per connected master and slave (bytes)
system.membus.pkt_count::total                1154179                       # Packet count per connected master and slave (bytes)
system.membus.pkt_size_system.l2.mem_side::system.mem_ctrls.port     48884864                       # Cumulative packet size per connected master and slave (bytes)
system.membus.pkt_size_system.l2.mem_side::total     48884864                       # Cumulative packet size per connected master and slave (bytes)
system.membus.pkt_size::total                48884864                       # Cumulative packet size per connected master and slave (bytes)
system.membus.snoops                                0                       # Total snoops (count)
system.membus.snoopTraffic                          0                       # Total snoop traffic (bytes)
system.membus.snoop_fanout::samples            384854                       # Request fanout histogram
system.membus.snoop_fanout::mean                    0                       # Request fanout histogram
system.membus.snoop_fanout::stdev                   0                       # Request fanout histogram
system.membus.snoop_fanout::underflows              0      0.00%      0.00% # Request fanout histogram
system.membus.snoop_fanout::0                  384854    100.00%    100.00% # Request fanout histogram
system.membus.snoop_fanout::1                       0      0.00%    100.00% # Request fanout histogram
system.membus.snoop_fanout::overflows               0      0.00%    100.00% # Request fanout histogram
system.membus.snoop_fanout::min_value               0                       # Request fanout histogram
system.membus.snoop_fanout::max_value               0                       # Request fanout histogram
system.membus.snoop_fanout::total              384854                       # Request fanout histogram
system.membus.reqLayer2.occupancy          2356171000                       # Layer occupancy (ticks)
system.membus.reqLayer2.utilization               7.1                       # Layer utilization (%)
system.membus.respLayer1.occupancy         2029381750                       # Layer occupancy (ticks)
system.membus.respLayer1.utilization              6.1                       # Layer utilization (%)
system.membus.power_state.pwrStateResidencyTicks::UNDEFINED  33120604000                       # Cumulative time (in ticks) in various power states
system.switch_cpus.dtb.walker.power_state.pwrStateResidencyTicks::UNDEFINED  33120604000                       # Cumulative time (in ticks) in various power states
system.switch_cpus.itb.walker.power_state.pwrStateResidencyTicks::UNDEFINED  33120604000                       # Cumulative time (in ticks) in various power states
system.switch_cpus.power_state.pwrStateResidencyTicks::OFF  33120604000                       # Cumulative time (in ticks) in various power states
system.tol2bus.trans_dist::ReadResp             11803                       # Transaction distribution
system.tol2bus.trans_dist::WritebackDirty       761639                       # Transaction distribution
system.tol2bus.trans_dist::WritebackClean         3112                       # Transaction distribution
system.tol2bus.trans_dist::CleanEvict          390881                       # Transaction distribution
system.tol2bus.trans_dist::ReadExReq           379322                       # Transaction distribution
system.tol2bus.trans_dist::ReadExResp          379322                       # Transaction distribution
system.tol2bus.trans_dist::ReadCleanReq          3176                       # Transaction distribution
system.tol2bus.trans_dist::ReadSharedReq         8627                       # Transaction distribution
system.tol2bus.pkt_count_system.cpu.icache.mem_side::system.l2.cpu_side         9464                       # Packet count per connected master and slave (bytes)
system.tol2bus.pkt_count_system.cpu.dcache.mem_side::system.l2.cpu_side      1163783                       # Packet count per connected master and slave (bytes)
system.tol2bus.pkt_count::total               1173247                       # Packet count per connected master and slave (bytes)
system.tol2bus.pkt_size_system.cpu.icache.mem_side::system.l2.cpu_side       402432                       # Cumulative packet size per connected master and slave (bytes)
system.tol2bus.pkt_size_system.cpu.dcache.mem_side::system.l2.cpu_side     49319424                       # Cumulative packet size per connected master and slave (bytes)
system.tol2bus.pkt_size::total               49721856                       # Cumulative packet size per connected master and slave (bytes)
system.tol2bus.snoops                          764635                       # Total snoops (count)
system.tol2bus.snoopTraffic                  24254208                       # Total snoop traffic (bytes)
system.tol2bus.snoop_fanout::samples          1155760                       # Request fanout histogram
system.tol2bus.snoop_fanout::mean            0.332040                       # Request fanout histogram
system.tol2bus.snoop_fanout::stdev           0.470946                       # Request fanout histogram
system.tol2bus.snoop_fanout::underflows             0      0.00%      0.00% # Request fanout histogram
system.tol2bus.snoop_fanout::0                 772001     66.80%     66.80% # Request fanout histogram
system.tol2bus.snoop_fanout::1                 383759     33.20%    100.00% # Request fanout histogram
system.tol2bus.snoop_fanout::2                      0      0.00%    100.00% # Request fanout histogram
system.tol2bus.snoop_fanout::3                      0      0.00%    100.00% # Request fanout histogram
system.tol2bus.snoop_fanout::4                      0      0.00%    100.00% # Request fanout histogram
system.tol2bus.snoop_fanout::overflows              0      0.00%    100.00% # Request fanout histogram
system.tol2bus.snoop_fanout::min_value              0                       # Request fanout histogram
system.tol2bus.snoop_fanout::max_value              1                       # Request fanout histogram
system.tol2bus.snoop_fanout::total            1155760                       # Request fanout histogram
system.tol2bus.reqLayer0.occupancy          776838000                       # Layer occupancy (ticks)
system.tol2bus.reqLayer0.utilization              2.3                       # Layer utilization (%)
system.tol2bus.respLayer1.occupancy         581926488                       # Layer occupancy (ticks)
system.tol2bus.respLayer1.utilization             1.8                       # Layer utilization (%)
system.tol2bus.respLayer0.occupancy           4767487                       # Layer occupancy (ticks)
system.tol2bus.respLayer0.utilization             0.0                       # Layer utilization (%)
system.tol2bus.power_state.pwrStateResidencyTicks::UNDEFINED  33120604000                       # Cumulative time (in ticks) in various power states
system.voltage_domain.voltage                       1                       # Voltage in Volts
system.clk_domain.clock                          1000                       # Clock period in ticks
system.l2.demand_hits::.switch_cpus.inst         1628                       # number of demand (read+write) hits
system.l2.demand_hits::.switch_cpus.data         4642                       # number of demand (read+write) hits
system.l2.demand_hits::total                     6270                       # number of demand (read+write) hits
system.l2.overall_hits::.switch_cpus.inst         1628                       # number of overall hits
system.l2.overall_hits::.switch_cpus.data         4642                       # number of overall hits
system.l2.overall_hits::total                    6270                       # number of overall hits
system.l2.demand_misses::.cpu.inst                  2                       # number of demand (read+write) misses
system.l2.demand_misses::.cpu.data                  2                       # number of demand (read+write) misses
system.l2.demand_misses::.switch_cpus.inst         1546                       # number of demand (read+write) misses
system.l2.demand_misses::.switch_cpus.data       383305                       # number of demand (read+write) misses
system.l2.demand_misses::total                 384855                       # number of demand (read+write) misses
system.l2.overall_misses::.cpu.inst                 2                       # number of overall misses
system.l2.overall_misses::.cpu.data                 2                       # number of overall misses
system.l2.overall_misses::.switch_cpus.inst         1546                       # number of overall misses
system.l2.overall_misses::.switch_cpus.data       383305                       # number of overall misses
system.l2.overall_misses::total                384855                       # number of overall misses
system.l2.demand_miss_latency::.switch_cpus.inst    126709500                       # number of demand (read+write) miss cycles
system.l2.demand_miss_latency::.switch_cpus.data  30577597500                       # number of demand (read+write) miss cycles
system.l2.demand_miss_latency::total      30704307000                       # number of demand (read+write) miss cycles
system.l2.overall_miss_latency::.switch_cpus.inst    126709500                       # number of overall miss cycles
system.l2.overall_miss_latency::.switch_cpus.data  30577597500                       # number of overall miss cycles
system.l2.overall_miss_latency::total     30704307000                       # number of overall miss cycles
system.l2.demand_accesses::.cpu.inst                2                       # number of demand (read+write) accesses
system.l2.demand_accesses::.cpu.data                2                       # number of demand (read+write) accesses
system.l2.demand_accesses::.switch_cpus.inst         3174                       # number of demand (read+write) accesses
system.l2.demand_accesses::.switch_cpus.data       387947                       # number of demand (read+write) accesses
system.l2.demand_accesses::total               391125                       # number of demand (read+write) accesses
system.l2.overall_accesses::.cpu.inst               2                       # number of overall (read+write) accesses
system.l2.overall_accesses::.cpu.data               2                       # number of overall (read+write) accesses
system.l2.overall_accesses::.switch_cpus.inst         3174                       # number of overall (read+write) accesses
system.l2.overall_accesses::.switch_cpus.data       387947                       # number of overall (read+write) accesses
system.l2.overall_accesses::total              391125                       # number of overall (read+write) accesses
system.l2.demand_miss_rate::.cpu.inst               1                       # miss rate for demand accesses
system.l2.demand_miss_rate::.cpu.data               1                       # miss rate for demand accesses
system.l2.demand_miss_rate::.switch_cpus.inst     0.487083                       # miss rate for demand accesses
system.l2.demand_miss_rate::.switch_cpus.data     0.988034                       # miss rate for demand accesses
system.l2.demand_miss_rate::total            0.983969                       # miss rate for demand accesses
system.l2.overall_miss_rate::.cpu.inst              1                       # miss rate for overall accesses
system.l2.overall_miss_rate::.cpu.data              1                       # miss rate for overall accesses
system.l2.overall_miss_rate::.switch_cpus.inst     0.487083                       # miss rate for overall accesses
system.l2.overall_miss_rate::.switch_cpus.data     0.988034                       # miss rate for overall accesses
system.l2.overall_miss_rate::total           0.983969                       # miss rate for overall accesses
system.l2.demand_avg_miss_latency::.switch_cpus.inst 81959.573092                       # average overall miss latency
system.l2.demand_avg_miss_latency::.switch_cpus.data 79773.541957                       # average overall miss latency
system.l2.demand_avg_miss_latency::total 79781.494329                       # average overall miss latency
system.l2.overall_avg_miss_latency::.switch_cpus.inst 81959.573092                       # average overall miss latency
system.l2.overall_avg_miss_latency::.switch_cpus.data 79773.541957                       # average overall miss latency
system.l2.overall_avg_miss_latency::total 79781.494329                       # average overall miss latency
system.l2.blocked_cycles::no_mshrs                  0                       # number of cycles access was blocked
system.l2.blocked_cycles::no_targets                0                       # number of cycles access was blocked
system.l2.blocked::no_mshrs                         0                       # number of cycles access was blocked
system.l2.blocked::no_targets                       0                       # number of cycles access was blocked
system.l2.avg_blocked_cycles::no_mshrs            nan                       # average number of cycles each access was blocked
system.l2.avg_blocked_cycles::no_targets          nan                       # average number of cycles each access was blocked
system.l2.writebacks::.writebacks              378972                       # number of writebacks
system.l2.writebacks::total                    378972                       # number of writebacks
system.l2.demand_mshr_hits::.switch_cpus.inst            1                       # number of demand (read+write) MSHR hits
system.l2.demand_mshr_hits::total                   1                       # number of demand (read+write) MSHR hits
system.l2.overall_mshr_hits::.switch_cpus.inst            1                       # number of overall MSHR hits
system.l2.overall_mshr_hits::total                  1                       # number of overall MSHR hits
system.l2.demand_mshr_misses::.switch_cpus.inst         1545                       # number of demand (read+write) MSHR misses
system.l2.demand_mshr_misses::.switch_cpus.data       383305                       # number of demand (read+write) MSHR misses
system.l2.demand_mshr_misses::total            384850                       # number of demand (read+write) MSHR misses
system.l2.overall_mshr_misses::.switch_cpus.inst         1545                       # number of overall MSHR misses
system.l2.overall_mshr_misses::.switch_cpus.data       383305                       # number of overall MSHR misses
system.l2.overall_mshr_misses::total           384850                       # number of overall MSHR misses
system.l2.demand_mshr_miss_latency::.switch_cpus.inst    111163000                       # number of demand (read+write) MSHR miss cycles
system.l2.demand_mshr_miss_latency::.switch_cpus.data  26744547500                       # number of demand (read+write) MSHR miss cycles
system.l2.demand_mshr_miss_latency::total  26855710500                       # number of demand (read+write) MSHR miss cycles
system.l2.overall_mshr_miss_latency::.switch_cpus.inst    111163000                       # number of overall MSHR miss cycles
system.l2.overall_mshr_miss_latency::.switch_cpus.data  26744547500                       # number of overall MSHR miss cycles
system.l2.overall_mshr_miss_latency::total  26855710500                       # number of overall MSHR miss cycles
system.l2.demand_mshr_miss_rate::.switch_cpus.inst     0.486767                       # mshr miss rate for demand accesses
system.l2.demand_mshr_miss_rate::.switch_cpus.data     0.988034                       # mshr miss rate for demand accesses
system.l2.demand_mshr_miss_rate::total       0.983957                       # mshr miss rate for demand accesses
system.l2.overall_mshr_miss_rate::.switch_cpus.inst     0.486767                       # mshr miss rate for overall accesses
system.l2.overall_mshr_miss_rate::.switch_cpus.data     0.988034                       # mshr miss rate for overall accesses
system.l2.overall_mshr_miss_rate::total      0.983957                       # mshr miss rate for overall accesses
system.l2.demand_avg_mshr_miss_latency::.switch_cpus.inst 71950.161812                       # average overall mshr miss latency
system.l2.demand_avg_mshr_miss_latency::.switch_cpus.data 69773.541957                       # average overall mshr miss latency
system.l2.demand_avg_mshr_miss_latency::total 69782.280109                       # average overall mshr miss latency
system.l2.overall_avg_mshr_miss_latency::.switch_cpus.inst 71950.161812                       # average overall mshr miss latency
system.l2.overall_avg_mshr_miss_latency::.switch_cpus.data 69773.541957                       # average overall mshr miss latency
system.l2.overall_avg_mshr_miss_latency::total 69782.280109                       # average overall mshr miss latency
system.l2.replacements                         764635                       # number of replacements
system.l2.WritebackDirty_hits::.writebacks       382667                       # number of WritebackDirty hits
system.l2.WritebackDirty_hits::total           382667                       # number of WritebackDirty hits
system.l2.WritebackDirty_accesses::.writebacks       382667                       # number of WritebackDirty accesses(hits+misses)
system.l2.WritebackDirty_accesses::total       382667                       # number of WritebackDirty accesses(hits+misses)
system.l2.WritebackClean_hits::.writebacks         3112                       # number of WritebackClean hits
system.l2.WritebackClean_hits::total             3112                       # number of WritebackClean hits
system.l2.WritebackClean_accesses::.writebacks         3112                       # number of WritebackClean accesses(hits+misses)
system.l2.WritebackClean_accesses::total         3112                       # number of WritebackClean accesses(hits+misses)
system.l2.CleanEvict_mshr_misses::.writebacks         3594                       # number of CleanEvict MSHR misses
system.l2.CleanEvict_mshr_misses::total          3594                       # number of CleanEvict MSHR misses
system.l2.CleanEvict_mshr_miss_rate::.writebacks          inf                       # mshr miss rate for CleanEvict accesses
system.l2.CleanEvict_mshr_miss_rate::total          inf                       # mshr miss rate for CleanEvict accesses
system.l2.ReadExReq_hits::.switch_cpus.data          665                       # number of ReadExReq hits
system.l2.ReadExReq_hits::total                   665                       # number of ReadExReq hits
system.l2.ReadExReq_misses::.cpu.data               2                       # number of ReadExReq misses
system.l2.ReadExReq_misses::.switch_cpus.data       378655                       # number of ReadExReq misses
system.l2.ReadExReq_misses::total              378657                       # number of ReadExReq misses
system.l2.ReadExReq_miss_latency::.switch_cpus.data  30204548500                       # number of ReadExReq miss cycles
system.l2.ReadExReq_miss_latency::total   30204548500                       # number of ReadExReq miss cycles
system.l2.ReadExReq_accesses::.cpu.data             2                       # number of ReadExReq accesses(hits+misses)
system.l2.ReadExReq_accesses::.switch_cpus.data       379320                       # number of ReadExReq accesses(hits+misses)
system.l2.ReadExReq_accesses::total            379322                       # number of ReadExReq accesses(hits+misses)
system.l2.ReadExReq_miss_rate::.cpu.data            1                       # miss rate for ReadExReq accesses
system.l2.ReadExReq_miss_rate::.switch_cpus.data     0.998247                       # miss rate for ReadExReq accesses
system.l2.ReadExReq_miss_rate::total         0.998247                       # miss rate for ReadExReq accesses
system.l2.ReadExReq_avg_miss_latency::.switch_cpus.data 79767.990651                       # average ReadExReq miss latency
system.l2.ReadExReq_avg_miss_latency::total 79767.569331                       # average ReadExReq miss latency
system.l2.ReadExReq_mshr_misses::.switch_cpus.data       378655                       # number of ReadExReq MSHR misses
system.l2.ReadExReq_mshr_misses::total         378655                       # number of ReadExReq MSHR misses
system.l2.ReadExReq_mshr_miss_latency::.switch_cpus.data  26417998500                       # number of ReadExReq MSHR miss cycles
system.l2.ReadExReq_mshr_miss_latency::total  26417998500                       # number of ReadExReq MSHR miss cycles
system.l2.ReadExReq_mshr_miss_rate::.switch_cpus.data     0.998247                       # mshr miss rate for ReadExReq accesses
system.l2.ReadExReq_mshr_miss_rate::total     0.998242                       # mshr miss rate for ReadExReq accesses
system.l2.ReadExReq_avg_mshr_miss_latency::.switch_cpus.data 69767.990651                       # average ReadExReq mshr miss latency
system.l2.ReadExReq_avg_mshr_miss_latency::total 69767.990651                       # average ReadExReq mshr miss latency
system.l2.ReadCleanReq_hits::.switch_cpus.inst         1628                       # number of ReadCleanReq hits
system.l2.ReadCleanReq_hits::total               1628                       # number of ReadCleanReq hits
system.l2.ReadCleanReq_misses::.cpu.inst            2                       # number of ReadCleanReq misses
system.l2.ReadCleanReq_misses::.switch_cpus.inst         1546                       # number of ReadCleanReq misses
system.l2.ReadCleanReq_misses::total             1548                       # number of ReadCleanReq misses
[...]
system.cpu.itb_walker_cache.blocked_cycles::no_mshrs            0                       # number of cycles access was blocked
system.cpu.itb_walker_cache.blocked_cycles::no_targets            0                       # number of cycles access was blocked
system.cpu.itb_walker_cache.blocked::no_mshrs            0                       # number of cycles access was blocked
system.cpu.itb_walker_cache.blocked::no_targets            0                       # number of cycles access was blocked
system.cpu.itb_walker_cache.avg_blocked_cycles::no_mshrs          nan                       # average number of cycles each access was blocked
system.cpu.itb_walker_cache.avg_blocked_cycles::no_targets          nan                       # average number of cycles each access was blocked
system.cpu.itb_walker_cache.replacements            0                       # number of replacements
system.cpu.itb_walker_cache.power_state.pwrStateResidencyTicks::UNDEFINED  34811552500                       # Cumulative time (in ticks) in various power states
system.cpu.itb_walker_cache.tags.tagsinuse            0                       # Cycle average of tags in use
system.cpu.itb_walker_cache.tags.total_refs            0                       # Total number of references to valid blocks.
system.cpu.itb_walker_cache.tags.sampled_refs            0                       # Sample count of references to valid blocks.
system.cpu.itb_walker_cache.tags.avg_refs          nan                       # Average number of references to valid blocks.
system.cpu.itb_walker_cache.tags.warmup_cycle            0                       # Cycle when the warmup percentage was hit.
system.cpu.itb_walker_cache.tags.tag_accesses            0                       # Number of tag accesses
system.cpu.itb_walker_cache.tags.data_accesses            0                       # Number of data accesses
system.cpu.itb_walker_cache.tags.power_state.pwrStateResidencyTicks::UNDEFINED  34811552500                       # Cumulative time (in ticks) in various power states
system.cpu.itb.walker.power_state.pwrStateResidencyTicks::UNDEFINED  34811552500                       # Cumulative time (in ticks) in various power states
system.cpu.dtb_walker_cache.blocked_cycles::no_mshrs            0                       # number of cycles access was blocked
system.cpu.dtb_walker_cache.blocked_cycles::no_targets            0                       # number of cycles access was blocked
system.cpu.dtb_walker_cache.blocked::no_mshrs            0                       # number of cycles access was blocked
system.cpu.dtb_walker_cache.blocked::no_targets            0                       # number of cycles access was blocked
system.cpu.dtb_walker_cache.avg_blocked_cycles::no_mshrs          nan                       # average number of cycles each access was blocked
system.cpu.dtb_walker_cache.avg_blocked_cycles::no_targets          nan                       # average number of cycles each access was blocked
system.cpu.dtb_walker_cache.replacements            0                       # number of replacements
system.cpu.dtb_walker_cache.power_state.pwrStateResidencyTicks::UNDEFINED  34811552500                       # Cumulative time (in ticks) in various power states
system.cpu.dtb_walker_cache.tags.tagsinuse            0                       # Cycle average of tags in use
system.cpu.dtb_walker_cache.tags.total_refs            0                       # Total number of references to valid blocks.
system.cpu.dtb_walker_cache.tags.sampled_refs            0                       # Sample count of references to valid blocks.
system.cpu.dtb_walker_cache.tags.avg_refs          nan                       # Average number of references to valid blocks.
system.cpu.dtb_walker_cache.tags.warmup_cycle            0                       # Cycle when the warmup percentage was hit.
system.cpu.dtb_walker_cache.tags.tag_accesses            0                       # Number of tag accesses
system.cpu.dtb_walker_cache.tags.data_accesses            0                       # Number of data accesses
system.cpu.dtb_walker_cache.tags.power_state.pwrStateResidencyTicks::UNDEFINED  34811552500                       # Cumulative time (in ticks) in various power states
system.cpu.dcache.demand_hits::.cpu.data            5                       # number of demand (read+write) hits
system.cpu.dcache.demand_hits::.switch_cpus.data      5116172                       # number of demand (read+write) hits
system.cpu.dcache.demand_hits::total          5116177                       # number of demand (read+write) hits
system.cpu.dcache.overall_hits::.cpu.data            5                       # number of overall hits
system.cpu.dcache.overall_hits::.switch_cpus.data      5116172                       # number of overall hits
system.cpu.dcache.overall_hits::total         5116177                       # number of overall hits
system.cpu.dcache.demand_misses::.cpu.data            2                       # number of demand (read+write) misses
system.cpu.dcache.demand_misses::.switch_cpus.data       419147                       # number of demand (read+write) misses
system.cpu.dcache.demand_misses::total         419149                       # number of demand (read+write) misses
system.cpu.dcache.overall_misses::.cpu.data            2                       # number of overall misses
system.cpu.dcache.overall_misses::.switch_cpus.data       419147                       # number of overall misses
system.cpu.dcache.overall_misses::total        419149                       # number of overall misses
system.cpu.dcache.demand_miss_latency::.switch_cpus.data  33794990975                       # number of demand (read+write) miss cycles
system.cpu.dcache.demand_miss_latency::total  33794990975                       # number of demand (read+write) miss cycles
system.cpu.dcache.overall_miss_latency::.switch_cpus.data  33794990975                       # number of overall miss cycles
system.cpu.dcache.overall_miss_latency::total  33794990975                       # number of overall miss cycles
system.cpu.dcache.demand_accesses::.cpu.data            7                       # number of demand (read+write) accesses
system.cpu.dcache.demand_accesses::.switch_cpus.data      5535319                       # number of demand (read+write) accesses
system.cpu.dcache.demand_accesses::total      5535326                       # number of demand (read+write) accesses
system.cpu.dcache.overall_accesses::.cpu.data            7                       # number of overall (read+write) accesses
system.cpu.dcache.overall_accesses::.switch_cpus.data      5535319                       # number of overall (read+write) accesses
system.cpu.dcache.overall_accesses::total      5535326                       # number of overall (read+write) accesses
system.cpu.dcache.demand_miss_rate::.cpu.data     0.285714                       # miss rate for demand accesses
system.cpu.dcache.demand_miss_rate::.switch_cpus.data     0.075722                       # miss rate for demand accesses
system.cpu.dcache.demand_miss_rate::total     0.075723                       # miss rate for demand accesses
system.cpu.dcache.overall_miss_rate::.cpu.data     0.285714                       # miss rate for overall accesses
system.cpu.dcache.overall_miss_rate::.switch_cpus.data     0.075722                       # miss rate for overall accesses
system.cpu.dcache.overall_miss_rate::total     0.075723                       # miss rate for overall accesses
system.cpu.dcache.demand_avg_miss_latency::.switch_cpus.data 80628.015887                       # average overall miss latency
system.cpu.dcache.demand_avg_miss_latency::total 80627.631165                       # average overall miss latency
system.cpu.dcache.overall_avg_miss_latency::.switch_cpus.data 80628.015887                       # average overall miss latency
system.cpu.dcache.overall_avg_miss_latency::total 80627.631165                       # average overall miss latency
system.cpu.dcache.blocked_cycles::no_mshrs        37990                       # number of cycles access was blocked
system.cpu.dcache.blocked_cycles::no_targets         1370                       # number of cycles access was blocked
system.cpu.dcache.blocked::no_mshrs              1195                       # number of cycles access was blocked
system.cpu.dcache.blocked::no_targets              13                       # number of cycles access was blocked
system.cpu.dcache.avg_blocked_cycles::no_mshrs    31.790795                       # average number of cycles each access was blocked
system.cpu.dcache.avg_blocked_cycles::no_targets   105.384615                       # average number of cycles each access was blocked
system.cpu.dcache.writebacks::.writebacks       400195                       # number of writebacks
system.cpu.dcache.writebacks::total            400195                       # number of writebacks
system.cpu.dcache.demand_mshr_hits::.switch_cpus.data        13379                       # number of demand (read+write) MSHR hits
system.cpu.dcache.demand_mshr_hits::total        13379                       # number of demand (read+write) MSHR hits
system.cpu.dcache.overall_mshr_hits::.switch_cpus.data        13379                       # number of overall MSHR hits
system.cpu.dcache.overall_mshr_hits::total        13379                       # number of overall MSHR hits
system.cpu.dcache.demand_mshr_misses::.switch_cpus.data       405768                       # number of demand (read+write) MSHR misses
system.cpu.dcache.demand_mshr_misses::total       405768                       # number of demand (read+write) MSHR misses
system.cpu.dcache.overall_mshr_misses::.switch_cpus.data       405768                       # number of overall MSHR misses
system.cpu.dcache.overall_mshr_misses::total       405768                       # number of overall MSHR misses
system.cpu.dcache.demand_mshr_miss_latency::.switch_cpus.data  32650619975                       # number of demand (read+write) MSHR miss cycles
system.cpu.dcache.demand_mshr_miss_latency::total  32650619975                       # number of demand (read+write) MSHR miss cycles
system.cpu.dcache.overall_mshr_miss_latency::.switch_cpus.data  32650619975                       # number of overall MSHR miss cycles
system.cpu.dcache.overall_mshr_miss_latency::total  32650619975                       # number of overall MSHR miss cycles
system.cpu.dcache.demand_mshr_miss_rate::.switch_cpus.data     0.073305                       # mshr miss rate for demand accesses
system.cpu.dcache.demand_mshr_miss_rate::total     0.073305                       # mshr miss rate for demand accesses
system.cpu.dcache.overall_mshr_miss_rate::.switch_cpus.data     0.073305                       # mshr miss rate for overall accesses
system.cpu.dcache.overall_mshr_miss_rate::total     0.073305                       # mshr miss rate for overall accesses
system.cpu.dcache.demand_avg_mshr_miss_latency::.switch_cpus.data 80466.226945                       # average overall mshr miss latency
system.cpu.dcache.demand_avg_mshr_miss_latency::total 80466.226945                       # average overall mshr miss latency
system.cpu.dcache.overall_avg_mshr_miss_latency::.switch_cpus.data 80466.226945                       # average overall mshr miss latency
system.cpu.dcache.overall_avg_mshr_miss_latency::total 80466.226945                       # average overall mshr miss latency
system.cpu.dcache.replacements                 405706                       # number of replacements
system.cpu.dcache.ReadReq_hits::.switch_cpus.data      3705625                       # number of ReadReq hits
system.cpu.dcache.ReadReq_hits::total         3705625                       # number of ReadReq hits
system.cpu.dcache.ReadReq_misses::.switch_cpus.data        22920                       # number of ReadReq misses
system.cpu.dcache.ReadReq_misses::total         22920                       # number of ReadReq misses
system.cpu.dcache.ReadReq_miss_latency::.switch_cpus.data   1244748500                       # number of ReadReq miss cycles
system.cpu.dcache.ReadReq_miss_latency::total   1244748500                       # number of ReadReq miss cycles
system.cpu.dcache.ReadReq_accesses::.switch_cpus.data      3728545                       # number of ReadReq accesses(hits+misses)
system.cpu.dcache.ReadReq_accesses::total      3728545                       # number of ReadReq accesses(hits+misses)
system.cpu.dcache.ReadReq_miss_rate::.switch_cpus.data     0.006147                       # miss rate for ReadReq accesses
system.cpu.dcache.ReadReq_miss_rate::total     0.006147                       # miss rate for ReadReq accesses
system.cpu.dcache.ReadReq_avg_miss_latency::.switch_cpus.data 54308.398778                       # average ReadReq miss latency
system.cpu.dcache.ReadReq_avg_miss_latency::total 54308.398778                       # average ReadReq miss latency
system.cpu.dcache.ReadReq_mshr_hits::.switch_cpus.data        13364                       # number of ReadReq MSHR hits
system.cpu.dcache.ReadReq_mshr_hits::total        13364                       # number of ReadReq MSHR hits
system.cpu.dcache.ReadReq_mshr_misses::.switch_cpus.data         9556                       # number of ReadReq MSHR misses
system.cpu.dcache.ReadReq_mshr_misses::total         9556                       # number of ReadReq MSHR misses
system.cpu.dcache.ReadReq_mshr_miss_latency::.switch_cpus.data    497234500                       # number of ReadReq MSHR miss cycles
system.cpu.dcache.ReadReq_mshr_miss_latency::total    497234500                       # number of ReadReq MSHR miss cycles
system.cpu.dcache.ReadReq_mshr_miss_rate::.switch_cpus.data     0.002563                       # mshr miss rate for ReadReq accesses
system.cpu.dcache.ReadReq_mshr_miss_rate::total     0.002563                       # mshr miss rate for ReadReq accesses
system.cpu.dcache.ReadReq_avg_mshr_miss_latency::.switch_cpus.data 52033.748430                       # average ReadReq mshr miss latency
system.cpu.dcache.ReadReq_avg_mshr_miss_latency::total 52033.748430                       # average ReadReq mshr miss latency
system.cpu.dcache.WriteReq_hits::.cpu.data            5                       # number of WriteReq hits
system.cpu.dcache.WriteReq_hits::.switch_cpus.data      1410547                       # number of WriteReq hits
system.cpu.dcache.WriteReq_hits::total        1410552                       # number of WriteReq hits
system.cpu.dcache.WriteReq_misses::.cpu.data            2                       # number of WriteReq misses
system.cpu.dcache.WriteReq_misses::.switch_cpus.data       396227                       # number of WriteReq misses
system.cpu.dcache.WriteReq_misses::total       396229                       # number of WriteReq misses
system.cpu.dcache.WriteReq_miss_latency::.switch_cpus.data  32550242475                       # number of WriteReq miss cycles
system.cpu.dcache.WriteReq_miss_latency::total  32550242475                       # number of WriteReq miss cycles
system.cpu.dcache.WriteReq_accesses::.cpu.data            7                       # number of WriteReq accesses(hits+misses)
system.cpu.dcache.WriteReq_accesses::.switch_cpus.data      1806774                       # number of WriteReq accesses(hits+misses)
system.cpu.dcache.WriteReq_accesses::total      1806781                       # number of WriteReq accesses(hits+misses)
system.cpu.dcache.WriteReq_miss_rate::.cpu.data     0.285714                       # miss rate for WriteReq accesses
system.cpu.dcache.WriteReq_miss_rate::.switch_cpus.data     0.219301                       # miss rate for WriteReq accesses
system.cpu.dcache.WriteReq_miss_rate::total     0.219301                       # miss rate for WriteReq accesses
system.cpu.dcache.WriteReq_avg_miss_latency::.switch_cpus.data 82150.490691                       # average WriteReq miss latency
system.cpu.dcache.WriteReq_avg_miss_latency::total 82150.076029                       # average WriteReq miss latency
system.cpu.dcache.WriteReq_mshr_hits::.switch_cpus.data           15                       # number of WriteReq MSHR hits
system.cpu.dcache.WriteReq_mshr_hits::total           15                       # number of WriteReq MSHR hits
system.cpu.dcache.WriteReq_mshr_misses::.switch_cpus.data       396212                       # number of WriteReq MSHR misses
system.cpu.dcache.WriteReq_mshr_misses::total       396212                       # number of WriteReq MSHR misses
system.cpu.dcache.WriteReq_mshr_miss_latency::.switch_cpus.data  32153385475                       # number of WriteReq MSHR miss cycles
system.cpu.dcache.WriteReq_mshr_miss_latency::total  32153385475                       # number of WriteReq MSHR miss cycles
system.cpu.dcache.WriteReq_mshr_miss_rate::.switch_cpus.data     0.219293                       # mshr miss rate for WriteReq accesses
system.cpu.dcache.WriteReq_mshr_miss_rate::total     0.219292                       # mshr miss rate for WriteReq accesses
system.cpu.dcache.WriteReq_avg_mshr_miss_latency::.switch_cpus.data 81151.972871                       # average WriteReq mshr miss latency
system.cpu.dcache.WriteReq_avg_mshr_miss_latency::total 81151.972871                       # average WriteReq mshr miss latency
system.cpu.dcache.power_state.pwrStateResidencyTicks::UNDEFINED  34811552500                       # Cumulative time (in ticks) in various power states
system.cpu.dcache.tags.tagsinuse            63.995102                       # Cycle average of tags in use
system.cpu.dcache.tags.total_refs             5521947                       # Total number of references to valid blocks.
system.cpu.dcache.tags.sampled_refs            405770                       # Sample count of references to valid blocks.
system.cpu.dcache.tags.avg_refs             13.608564                       # Average number of references to valid blocks.
system.cpu.dcache.tags.warmup_cycle              1500                       # Cycle when the warmup percentage was hit.
system.cpu.dcache.tags.occ_blocks::.cpu.data     0.000410                       # Average occupied blocks per requestor
system.cpu.dcache.tags.occ_blocks::.switch_cpus.data    63.994692                       # Average occupied blocks per requestor
system.cpu.dcache.tags.occ_percent::.cpu.data     0.000006                       # Average percentage of cache occupancy
system.cpu.dcache.tags.occ_percent::.switch_cpus.data     0.999917                       # Average percentage of cache occupancy
system.cpu.dcache.tags.occ_percent::total     0.999923                       # Average percentage of cache occupancy
system.cpu.dcache.tags.occ_task_id_blocks::1024           64                       # Occupied blocks per task id
system.cpu.dcache.tags.age_task_id_blocks_1024::0           63                       # Occupied blocks per task id
system.cpu.dcache.tags.age_task_id_blocks_1024::3            1                       # Occupied blocks per task id
system.cpu.dcache.tags.occ_task_id_percent::1024            1                       # Percentage of cache occupancy per task id
system.cpu.dcache.tags.tag_accesses          11476422                       # Number of tag accesses
system.cpu.dcache.tags.data_accesses         11476422                       # Number of data accesses
system.cpu.dcache.tags.power_state.pwrStateResidencyTicks::UNDEFINED  34811552500                       # Cumulative time (in ticks) in various power states
system.cpu.power_state.numTransitions               1                       # Number of power state transitions
system.cpu.power_state.pwrStateResidencyTicks::ON        10500                       # Cumulative time (in ticks) in various power states
system.cpu.power_state.pwrStateResidencyTicks::OFF  34811542000                       # Cumulative time (in ticks) in various power states

---------- End Simulation Statistics   ----------
